         621
 CSIRO Nanostructure Databank - Neutral Graphene Oxide Data Set
C          6.05013        31.58255         1.03790
C          6.00444        32.91555         1.26326
C          8.25235        27.32451        -0.49670
C          8.23414        28.81696        -0.79091
C          7.17779        29.60325         0.02991
C          7.84444        31.93276        -0.58459
C          6.96087        30.96343         0.05774
C          8.01585        33.21342        -0.13745
C          6.78435        33.89322         0.40318
C          8.19549        36.01071         0.54979
C          7.05001        35.29179         0.89482
C          8.25385        37.43739         0.69322
C         10.62038        22.97918         0.01018
C         10.54917        24.41684         0.06836
C          9.38274        25.15859        -0.04484
C         10.58410        27.33220         0.33108
C          9.34953        26.61342        -0.08006
C         10.69404        28.77078         0.03036
C          9.60680        29.43857        -0.54593
C         10.78555        31.57532        -0.22657
C          9.76310        30.80452        -0.78664
C         10.64045        33.04430         0.04713
C          9.35714        33.83580         0.04351
C         10.61156        36.01370         0.07013
C          9.41242        35.32544         0.13092
C         10.66996        37.44538         0.24390
C          9.43707        38.16577         0.49350
C         10.68533        40.30903         0.50609
C          9.48022        39.58744         0.59570
C         10.71560        41.72713         0.60204
C         13.42268        18.97048        -0.04811
C         13.21739        20.28585        -0.50279
C         12.00196        20.92351        -0.20009
C         12.92131        23.10104        -0.93222
C         11.80535        22.31964        -0.32202
C         13.08189        24.48357        -0.39731
C         11.85815        25.09807         0.23106
C         13.15076        27.27103         0.25532
C         11.88554        26.56230         0.46071
C         13.13566        28.70499         0.61076
C         11.89125        29.47206         0.31663
C         13.12383        31.64845         0.73911
C         11.90956        30.88289         0.25925
C         13.18195        33.08806         0.27439
C         11.93037        33.79747        -0.08793
C         13.14965        36.01739         0.16124
C         11.89619        35.29525        -0.12578
C         13.15010        37.39805         0.22430
C         11.89373        38.13235         0.20832
C         13.14840        40.24165         0.32589
C         11.93097        39.56852         0.33167
C         13.18631        41.68943         0.60829
C         11.92588        42.46116         0.61910
C         13.22470        44.59690         0.52031
C         11.99283        43.86140         0.63492
C         13.24378        46.01451         0.53921
C         16.23698        15.21626         1.26455
C         16.13545        16.48150         0.63119
C         14.89033        17.14601         0.61526
C         15.88367        19.16133        -0.44574
C         14.70047        18.39368         0.00768
C         15.70455        20.34906        -1.34788
C         14.30196        20.95030        -1.29262
C         15.33111        23.22204        -1.89361
C         14.11660        22.41958        -1.50970
C         15.25878        24.73425        -1.68356
C         14.20341        25.33001        -0.83131
C         15.45554        27.52292        -0.65203
C         14.24669        26.67999        -0.40763
C         15.65325        28.76592         0.10181
C         14.43312        29.44585         0.58903
C         15.66732        31.63080         0.17266
C         14.37613        30.90684         0.30825
C         15.65160        33.09537         0.34886
C         14.37123        33.76862         0.29166
C         15.66239        35.95117         0.32348
C         14.36708        35.24645         0.58900
C         15.62324        37.36729         0.34964
C         14.41388        38.10080         0.34355
C         15.60677        40.25296         0.10062
C         14.41684        39.54189         0.27089
C         15.59206        41.70291        -0.31497
C         14.48026        42.43818         0.40610
C         15.68310        44.59577         0.16746
C         14.45528        43.90588         0.31422
C         15.67724        46.00350         0.30029
C         14.45610        46.73072         0.45137
C         15.69528        48.89951         0.50873
C         14.50212        48.16613         0.55932
C         15.73938        50.33198         0.63605
C         18.85448        11.23408         2.43817
C         18.74537        12.47297         1.80070
C         17.53192        13.22605         1.84347
C         18.44125        14.84510         0.15475
C         17.39710        14.43868         1.16543
C         18.46733        16.32555        -0.17379
C         17.28979        17.06732        -0.00220
C         18.25585        19.01128        -1.36762
C         17.22401        18.48101        -0.42162
C         18.20858        20.48741        -1.72048
C         16.95975        21.12213        -1.73327
C         17.77309        23.50575        -2.42703
C         16.66933        22.55328        -2.14008
C         17.79404        24.85048        -2.14094
C         16.53544        25.53653        -1.82525
C         18.02536        27.47594        -0.98148
C         16.68099        26.93088        -1.31337
C         18.06961        28.72641        -0.39744
C         16.86535        29.43240         0.00850
C         18.11684        31.53183         0.42084
C         16.93305        30.86550         0.27986
C         18.10262        33.01093         0.60480
C         16.84609        33.77900         0.38366
C         18.13370        35.91471         0.26842
C         16.88386        35.23132         0.36960
C         18.14262        37.33838         0.17531
C         16.90211        38.07280         0.46511
C         18.13499        40.25989        -0.11917
C         16.89207        39.59852         0.30152
C         18.12319        41.69436        -0.30621
C         16.92522        42.41071        -0.22189
C         18.12253        44.54629        -0.25964
C         16.93022        43.85907        -0.10620
C         18.20662        45.97462         0.07251
C         16.94367        46.73952         0.38384
C         18.14902        48.92283         0.28907
C         16.95036        48.21809         0.34355
C         18.18496        50.34310         0.49439
C         16.92954        51.03045         0.65950
C         18.22226        53.23092         0.67559
C         16.90552        52.52395         0.92031
C         18.26456        54.61748         0.68390
C         21.30266         6.96511         3.42703
C         21.27272         8.38522         3.12274
C         20.05819         9.16868         2.99874
C         21.24589        11.00842         1.83371
C         20.06000        10.45688         2.46026
C         21.19340        12.39493         1.34221
C         19.89700        13.06976         1.15899
C         20.91320        14.85158        -0.22659
C         19.80403        14.27114         0.45266
C         20.83189        16.12122        -0.85994
C         19.61477        16.87628        -0.79717
C         20.74579        18.83300        -2.10850
C         19.49534        18.16260        -1.53977
C         20.82692        20.29251        -1.56151
C         19.54640        21.07479        -1.95462
C         20.97405        23.09936        -2.35072
C         19.75979        22.32355        -2.50178
C         21.02436        24.48947        -2.40205
C         19.01134        25.64620        -2.18324
C         20.59763        27.35702        -1.16718
C         19.24372        26.78720        -1.42106
C         20.62091        28.67595        -0.60701
C         19.38244        29.31330        -0.08213
C         20.65444        31.51419         0.21007
C         19.39973        30.77707         0.38515
C         20.71699        32.95089         0.71207
C         19.40483        33.75064         0.66273
C         20.55988        35.85267        -0.04241
C         19.39658        35.19360         0.26924
C         20.54175        37.30229        -0.34553
C         19.31007        38.06981        -0.08668
C         20.58909        40.24203        -0.20590
C         19.30795        39.50158        -0.17539
C         20.57178        41.69123        -0.46819
C         19.39568        42.38884        -0.48324
C         20.64449        44.61532        -0.44078
C         19.36480        43.87133        -0.80018
C         20.67649        45.97623        -0.37619
C         19.40717        46.75201        -0.37393
C         20.66967        48.94921         0.08527
C         19.39995        48.24406        -0.13372
C         20.68492        50.31281         0.44002
C         19.41956        51.04344         0.52899
C         20.66279        53.18765         0.45960
C         19.43485        52.47781         0.58257
C         20.68447        54.58029         0.33633
C         19.48762        55.34003         0.53193
C         20.76889        57.45503         0.77629
C         19.55434        56.74487         0.75277
C         20.88012        58.79432         1.20702
C         23.75268         4.14907         3.76622
C         22.59100         4.90259         3.91071
C         23.62048         6.69227         2.60304
C         22.50062         6.21037         3.35015
C         23.47832         7.94014         1.84516
C         22.51361         8.95771         2.31955
C         23.49005        10.68092         0.77490
C         22.38208        10.23502         1.59866
C         23.47543        11.97938         0.20985
C         22.35722        12.88699         0.51725
C         23.28269        14.49892        -1.22542
C         22.10682        14.00467        -0.42922
C         23.22965        15.90705        -1.71828
C         22.00301        16.69188        -1.48965
C         23.26650        18.68326        -2.17420
C         22.03417        18.03239        -1.87537
C         23.09416        20.05866        -2.57862
C         22.09610        20.90071        -2.17767
C         23.49827        23.21621        -2.27721
C         22.22420        22.35444        -2.41646
C         23.29635        24.55627        -1.65541
C         22.08429        25.25634        -1.78267
C         23.04818        27.33568        -0.84463
C         21.87018        26.65010        -1.28572
C         23.07118        28.72949        -0.56069
C         21.82897        29.40637        -0.42675
C         23.09510        31.53163        -0.03234
C         21.82912        30.82095        -0.06797
C         23.06973        32.97400         0.04936
C         21.89233        33.67254         0.13639
C         23.05228        35.89932         0.27179
C         21.86096        35.11976        -0.27427
C         23.07409        37.35699        -0.00701
C         21.83438        38.03016        -0.49345
C         23.15713        40.20276        -0.73762
C         21.89111        39.51583        -0.32317
C         23.15239        41.58561        -0.74841
C         21.90373        42.35014        -0.39767
C         23.20591        44.58014        -0.63692
C         21.91713        43.84856        -0.30714
C         23.23460        46.03674        -0.21797
C         21.94586        46.74518        -0.41617
C         23.20038        48.83877         0.30914
C         21.92643        48.25475        -0.20310
C         23.20662        50.30928         0.72090
C         21.91965        50.99960         0.61801
C         23.26554        53.16274         0.49316
C         21.93341        52.45490         0.65738
C         23.23966        54.53678        -0.08160
C         21.93449        55.29229         0.00605
C         23.32281        57.36106         0.53905
C         21.97573        56.77987         0.24542
C         23.38874        58.74714         1.08822
C         22.11413        59.48232         1.29262
C         23.44599        61.50624         1.68918
C         22.19735        60.83977         1.62051
C         24.84617         4.63620         3.04498
C         25.90826         6.42019         1.67859
C         24.78892         5.91038         2.42223
C         25.89808         7.66837         1.04870
C         24.63476         8.43329         0.99967
C         25.79101        10.32678        -0.05090
C         24.65549         9.85284         0.59710
C         25.73014        11.62097        -0.73570
C         24.55535        12.47915        -0.56060
C         25.79955        14.48257        -1.34866
C         24.57972        13.80671        -1.07095
C         25.81498        15.90995        -1.56539
C         24.57622        16.64059        -1.90396
C         25.82056        18.81862        -1.79691
C         24.57210        18.11872        -1.97275
C         25.90246        20.29160        -1.79160
C         24.99861        21.11227        -2.43966
C         25.93318        23.18003        -1.37661
C         24.86065        22.56355        -2.19417
C         25.69005        24.46607        -0.72403
C         24.37067        25.09118        -0.80199
C         25.55796        27.29155        -0.27348
C         24.27050        26.59485        -0.46136
C         25.56442        28.73960        -0.33071
C         24.33090        29.43035        -0.34682
C         25.58542        31.59389        -0.15309
C         24.32295        30.86092        -0.17815
C         25.61210        32.99388        -0.05032
C         24.35338        33.69542         0.19510
C         25.61641        35.94998         0.20324
C         24.36249        35.17922         0.39025
C         25.57674        37.33428        -0.04791
C         24.35150        38.04325        -0.26669
C         25.63476        39.82312        -1.25763
C         24.35553        39.34418        -0.78513
C         25.69073        41.91623        -1.20074
C         24.42538        42.35882        -0.61258
C         25.72856        44.53815        -0.14533
C         24.42490        43.80316        -0.18289
C         25.72234        46.01412        -0.48320
C         24.41761        46.69615        -0.10870
C         25.74951        48.79339         0.45297
C         24.50155        48.21986        -0.21105
C         25.76456        50.28796         0.70524
C         24.49616        51.04125         0.60509
C         25.79724        53.12282         0.27666
C         24.53318        52.39560         0.38010
C         25.81944        54.52663         0.11315
C         24.55828        55.25084        -0.20677
C         25.83178        57.49751         0.02148
C         24.54098        56.75501        -0.11342
C         25.82525        58.85713         0.61769
C         24.67174        59.49507         1.00236
C         24.63913        60.87739         1.39357
C         27.05642         8.27488         0.50828
C         28.24193        10.23497        -0.39285
C         27.03389         9.58013        -0.04033
C         28.30116        11.60063        -0.74382
C         27.05666        12.30972        -1.09629
C         28.26729        14.44680        -1.18070
C         27.04855        13.77734        -1.19280
C         28.28276        15.89545        -1.43245
C         27.00544        16.63941        -1.47335
C         28.26577        18.74787        -1.15578
C         27.02363        18.07877        -1.49590
C         28.29671        20.21407        -1.10317
C         27.04009        20.97214        -1.18804
C         28.15979        23.02713        -0.31350
C         27.05527        22.33367        -0.93944
C         28.03126        24.38646        -0.00368
C         26.78950        25.12237        -0.17807
C         28.02977        27.25854        -0.10819
C         26.72257        26.56316        -0.03588
C         28.09036        28.73365        -0.33369
C         26.80681        29.47895        -0.28498
C         28.12587        31.63388        -0.34863
C         26.82119        30.86425        -0.21798
C         28.02721        33.06117         0.12254
C         26.83601        33.75040         0.10888
C         28.07015        35.91881         0.17356
C         26.84275        35.22154         0.24001
C         28.14015        37.37925         0.14843
C         26.81458        38.13581        -0.01482
C         28.14297        40.11621        -0.96224
C         26.85780        39.38895        -0.77774
C         28.16667        41.66121        -1.07515
C         26.91862        42.41308        -0.86625
C         28.21396        44.58215        -0.83187
C         27.00880        43.79336        -0.34039
C         28.25056        45.97838        -0.26337
C         26.97286        46.64449         0.16813
C         28.24040        48.81534         0.23396
C         27.02267        48.14351         0.12514
C         28.24631        50.25987         0.37196
C         27.04487        50.98499         0.49163
C         28.28283        53.10018         0.30241
C         27.03146        52.40246         0.36758
C         28.25451        54.52329         0.21902
C         27.06022        55.22807         0.11656
C         27.15921        56.74134        -0.02942
C         29.49367        12.33484        -0.73629
C         30.70301        14.46019        -0.72411
C         29.50724        13.74193        -0.93862
C         30.74678        15.87191        -0.67587
C         29.58132        16.64474        -1.16082
C         30.61438        18.72841        -0.27316
C         29.47586        18.08147        -0.86186
C         30.61254        20.10648         0.00642
C         29.50936        20.92936        -0.50092
C         30.48971        22.91515         0.57951
C         29.37059        22.30814        -0.01028
C         30.49092        24.35863         0.73673
C         29.19989        25.07667         0.57082
C         30.49437        27.30216         0.59871
C         29.21370        26.56855         0.47966
C         30.48718        28.65832         0.61711
C         29.43664        29.44945        -0.15583
C         30.46667        31.56442         0.57097
C         29.33382        30.90777         0.21724
C         30.51012        33.03653         0.71000
C         29.25999        33.78909         0.45624
C         30.53073        35.87691        -0.02884
C         29.31391        35.22702         0.13726
C         30.58712        37.30328        -0.23408
C         29.39316        38.04477        -0.24711
C         30.64213        40.11912        -0.58209
C         29.41390        39.44099        -0.54217
C         30.67361        41.58812        -0.80694
C         29.39798        42.32269        -0.45967
C         30.70176        44.50705        -0.41916
C         29.48930        43.82200        -0.61521
C         30.71172        45.94226        -0.25809
C         29.46557        46.66282        -0.14336
C         30.72694        48.78385         0.15664
C         29.47692        48.08486         0.10324
C         30.71202        50.20517         0.24946
C         29.50740        50.95461         0.31064
C         29.49435        52.37136         0.31948
C         31.85273        16.55464        -0.18154
C         32.92095        18.58442         0.62614
C         31.82678        17.96924         0.05223
C         32.91182        19.99961         1.12064
C         31.70985        20.77093         0.62161
C         32.95150        22.84771         1.16013
C         31.68805        22.15469         0.80763
C         32.93217        24.34836         1.17018
C         31.65791        25.05480         0.91997
C         32.99985        27.20474         1.07490
C         31.77685        26.50803         0.52336
C         32.95549        28.63633         1.33387
C         31.67498        29.38453         1.12989
C         33.01543        31.56378         0.85027
C         31.70646        30.87362         1.02133
C         32.98310        32.99260         0.54712
C         31.81163        33.69779         0.47265
C         33.07297        35.82525        -0.20417
C         31.78266        35.08776        -0.05415
C         33.06111        37.29756        -0.30817
C         31.83951        37.99705        -0.35623
C         33.14971        40.09214        -0.36331
C         31.88405        39.41874        -0.43837
C         33.11117        41.55868         0.00516
C         31.95647        42.32591        -0.60153
C         33.16905        44.45935        -0.14973
C         31.93464        43.78506        -0.34074
C         33.16252        45.86737        -0.04090
C         31.95066        46.62559        -0.07265
C         31.93795        48.03869         0.09228
C         34.19562        20.74180         0.83297
C         35.44097        22.86978         0.78173
C         34.24197        22.13331         0.89294
C         35.47164        24.33133         0.66954
C         34.18630        25.08711         0.79859
C         35.47298        27.25883         0.99942
C         34.21167        26.54777         1.07365
C         35.49467        28.64267         0.92554
C         34.29009        29.42500         1.22112
C         35.50723        31.57374         0.77564
C         34.20219        30.86717         0.86691
C         35.55087        32.97510         0.26752
C         34.25203        33.69055         0.19635
C         35.57557        35.81368        -0.09067
C         34.29543        35.18510         0.41627
C         35.45167        37.08820        -0.59157
C         34.29240        37.95083        -0.43287
C         35.64372        40.11367        -0.13884
C         34.37166        39.38673        -0.37297
C         35.61222        41.51183        -0.04354
C         34.41935        42.29589        -0.12348
C         34.40027        43.68107        -0.12269
C         36.71376        25.11448         0.78159
C         37.96807        27.23635         0.84941
C         36.72305        26.49439         0.85723
C         38.01118        28.61453         0.68621
C         36.71883        29.33649         0.37759
C         38.03469        31.54383         0.44058
C         36.78094        30.80673         0.72961
C         38.04365        32.95366         0.37093
C         36.83691        33.72738         0.28642
C         38.11926        35.83871         0.15508
C         36.84977        35.11527         0.05042
C         38.23818        37.25394         0.26783
C         37.26819        38.17404        -0.22126
C         36.90079        39.45997         0.17903
C         39.21258        29.37862         0.64255
C         40.48714        31.51294         0.43972
C         39.24291        30.78373         0.48563
C         40.51269        32.88025         0.39089
C         39.30048        33.65915         0.34990
C         39.30252        35.05468         0.32788
O         14.75411        20.14518        -2.43105
O         29.33268        20.81120        -1.95796
O         25.89891        23.35661        -2.87633
O         19.98653        25.15590        -3.02540
O         15.55930        25.45651        -2.91671
O         24.40019        34.31702         1.56828
O         14.85984        31.22497        -1.01950
O         21.42181        39.92762         0.99366
O         21.97563        43.06938         0.91304
O         23.88442        54.65806        -1.37658
O         28.32936        40.83901        -2.23681
O         23.50660        57.55241         1.97700
O         22.68172        53.04640         1.82019
O         12.85359        24.42153         1.06549
O         11.11388        26.97436         1.64273
O         31.41247        30.22480         2.31002
O         25.59625        40.89479        -2.15992
O         31.47982        42.00084        -1.95072
O         17.00130        38.95365         1.62459
O         24.12171        20.58230        -3.36902
O         33.68588        29.06791         2.50278
O         25.08209        57.45983        -1.26154
O         15.79614        27.81255        -2.06266
O         32.96980        23.59720         2.43085
O         23.48886         7.73422         0.39338
O         13.85943        29.05006         1.87817
O         21.79711        56.25159        -1.09423
O         25.74268        49.31581         1.81156
O         26.25916        11.62293        -2.09952
O         23.83515        16.04925        -3.02857
O         18.78109        22.99233        -3.20930
O         19.22180        47.63875        -1.50931
O         18.39603        18.12651        -2.53166
O         17.84091        46.24642         1.46791
O         13.00152        22.86640        -2.36783
O         19.49146        29.66864         1.34512
O         32.50474        35.15783        -1.36172
O         24.65855        48.42807        -1.58614
O         29.73944        33.53732         1.86086
O         36.51489        37.64956        -1.29446
O         14.11892        41.96720         1.73113
O         24.44155        42.77604         0.82028
O         21.99758        47.67706        -1.54293
O         15.70176        22.78244        -3.23622
O         28.86050        25.91388         1.74942
O         27.49906        38.08698         1.26755
O         22.24818        13.27172         1.92004
O          8.77387        31.45589        -1.52426
O         18.65973        33.48428         1.90106
O         34.85163        33.16063        -1.02234
O         16.84868        19.43159         0.63189
O         29.19186        16.29061        -2.52273
O         22.26550        13.62435        -1.83767
O         22.43223         9.08965         3.73498
O          9.96341        33.27818         1.32285
O         21.20227        37.59254        -1.73216
O         23.16434        49.17700         1.69141
O         34.62091        24.78559        -0.57083
O         22.93742        22.91449        -3.58295
O         36.26071        31.28142         2.01614
O         26.55481        44.11982         0.98812
O         23.93779        25.56297         0.52194
O         12.00674        34.49890        -1.38291
O         28.21367        27.79396        -1.47117
O         22.84114        36.83192         1.35668
O         18.01643        14.19295        -1.09317
H         18.65636        14.44277        -1.79421
O         15.20344        41.76204        -1.73353
H         15.97344        41.48495        -2.27393
O         34.17979        35.41389         1.84884
H         34.96187        35.02427         2.29319
O         29.21295        42.09930         0.97858
H         29.97006        42.49487         1.46139
O         14.25641        35.24218         2.07656
H         14.50207        36.13699         2.39846
O         15.84853        53.14936         0.18229
H         16.04474        53.05926        -0.77261
O          7.89565        28.93310        -2.19045
H          7.98605        29.88339        -2.43268
O         28.03566        44.68081        -2.28873
H         28.79762        45.17554        -2.65699
O         36.58191        29.33462        -1.08096
H         36.62741        28.40453        -1.38906
O         20.93818        20.20393        -0.12463
H         20.89386        21.10451         0.25719
O         23.30166        44.60763        -2.08806
H         24.07428        45.18145        -2.32989
O         13.10344        31.68911         2.18585
H         13.18275        30.75771         2.50671
O         20.61856        18.93187        -3.53570
H         19.69873        18.66479        -3.77341
O         28.38936        31.73502        -1.79479
H         28.94570        30.95612        -2.04939
O         22.06740        35.06660        -1.72663
H         21.77758        35.94140        -2.09804
O          5.90179        34.13461        -0.76291
H          6.39259        34.70383        -1.39343
O         30.04437        29.51352        -1.49369
H         29.79667        28.67035        -1.95033
O         19.28966        43.94503        -2.26544
H         19.38682        44.88475        -2.53281
O         32.01126        26.44930        -0.93868
H         32.83234        25.92828        -1.09768
O         28.03603        57.24936         0.98558
H         27.68221        56.99574         1.86265
O         26.78813        46.46409         1.61396
H         27.60740        46.74513         2.07279
O         21.05990        32.78924         2.12364
H         20.20936        32.71701         2.61931
O         32.78770        41.57769         1.44424
H         33.52171        41.13511         1.92136
O         25.77571        46.12288        -1.91862
H         25.44682        47.05595        -2.13212
O         32.78242        19.92233         2.58982
H         32.79679        20.84200         2.93429
H          5.43154        30.90684         1.64896
H          5.31906        33.31717         2.02517
H          7.35289        26.76677        -0.80276
H          6.54498        28.99674         0.70058
H          6.18411        35.85142         1.28390
H          7.33319        37.97539         0.96627
H          9.72251        22.38756         0.24518
H          8.43687        24.62672        -0.23037
H          8.54101        40.13370         0.77186
H          9.76095        42.27117         0.66976
H         12.58069        18.42828         0.40745
H         11.21887        20.32439         0.28951
H         11.05508        44.43531         0.69046
H         12.30067        46.56472         0.67297
H         15.38925        14.85446         1.86574
H         14.01643        16.63043         1.04008
H         13.55292        48.70542         0.69769
H         14.79456        50.88423         0.74934
H         17.96395        10.81591         2.93075
H         16.70349        12.86233         2.47025
H         16.64801        52.66907         2.00832
H         17.32826        55.17797         0.82290
H         20.37498         6.47241         3.75335
H         19.10179         8.69886         3.27092
H         18.63008        57.26898         1.03998
H         19.96239        59.33440         1.48645
H         23.80889         3.15040         4.22173
H         21.73753         4.49930         4.47381
H         23.45522        62.57091         1.96225
H         21.27511        61.40575         1.81507
H         25.75120         4.02178         2.93618
H         26.83315         5.82429         1.66224
H         26.78288        59.39836         0.64783
H         25.58204        61.44212         1.41866
H         28.01393         7.73588         0.55894
H         29.18778         9.69406        -0.23898
H         29.20396        55.07802         0.19877
H         27.65252        56.96825        -1.01009
H         30.43925        11.82638        -0.49691
H         31.60788        13.89883        -0.44667
H         31.67101        50.74469         0.24107
H         30.44829        52.91886         0.29243
H         32.74453        15.98763         0.12523
H         33.81285        17.97832         0.84849
H         34.11669        46.39988         0.09054
H         32.89488        48.57352         0.18583
H         35.11785        20.17078         0.64816
H         36.39122        22.32225         0.69075
H         36.56813        42.04469         0.08159
H         35.35378        44.23174        -0.10640
H         37.67105        24.57137         0.75051
H         38.90836        26.67141         0.94796
H         39.14171        37.64523         0.76274
H         37.59579        40.02633         0.81945
H         40.17104        28.84668         0.75129
H         41.42933        30.94610         0.46914
H         41.47608        33.41099         0.37491
H         40.26757        35.58192         0.38328
