         252
 CSIRO Nanostructure Databank - Neutral Graphene Oxide Data Set
C         30.31098        31.78503        -0.33824
C         30.28703        32.88096         0.29134
C         30.44431        36.03097         1.11351
C         30.53612        37.22218         1.42776
C         30.44382        40.44460         0.99038
C         30.44812        41.68481         0.94069
C         32.65909        29.04920        -0.96932
C         31.47196        29.60074        -1.11574
C         32.71307        31.61283        -0.23466
C         31.35477        30.89304        -0.65435
C         32.68840        33.14082        -0.27735
C         31.40148        33.84540         0.11816
C         32.78914        35.89243         0.61242
C         31.56020        35.03689         1.02749
C         32.83158        37.27138         0.64121
C         31.67402        38.09328         1.14291
C         32.64936        40.22233        -0.03058
C         31.61781        39.54850         0.89234
C         32.89224        41.66226         0.48402
C         31.29578        42.65494         0.21828
C         32.94573        44.32971         0.73255
C         31.73767        43.96329         0.74893
C         35.34830        27.43776        -0.06759
C         34.74734        28.71058         0.41557
C         33.88066        29.41947        -0.55850
C         35.25559        31.69213        -0.50779
C         33.95403        30.99348        -0.91012
C         35.22166        33.02597        -0.08620
C         33.98780        33.79518         0.04730
C         35.28103        35.88031         0.70423
C         34.00670        35.14075         0.36241
C         35.26009        37.33355         0.26438
C         34.04795        37.99300         0.25574
C         35.28648        40.16141        -0.41075
C         33.97168        39.41985        -0.18237
C         35.33880        41.63388        -0.17173
C         34.03963        42.42669        -0.20209
C         35.46001        44.03965         1.27338
C         34.20497        43.79606         0.49882
C         35.73615        45.46525         1.60593
C         37.68214        27.41565        -1.20649
C         36.33115        27.12725        -0.73174
C         37.86158        28.89135        -1.21228
C         36.64306        29.72145        -1.42857
C         37.72301        31.58843        -0.29043
C         36.53804        31.02703        -0.72158
C         37.70394        32.94924         0.25364
C         36.46547        33.74074         0.15107
C         37.77091        35.83886         0.26347
C         36.51552        35.11492         0.31644
C         37.73189        37.26729         0.01825
C         36.52491        38.00062        -0.00854
C         37.78624        40.10287        -0.49968
C         36.55824        39.40545        -0.27842
C         37.68188        41.56641        -0.89764
C         36.55626        42.26839        -0.12952
C         37.82445        44.37273         0.25073
C         36.68988        43.61918         0.40579
C         37.90039        45.84804         0.62892
C         36.66228        46.22104         1.32184
C         39.56404        25.08357         1.05214
C         38.75118        25.45017         0.18425
C         40.19582        27.28850        -0.48985
C         38.86526        26.61503        -0.69800
C         40.28154        28.68073        -0.68651
C         39.05181        29.45643        -0.82339
C         40.27561        31.64020        -0.27805
C         39.01597        30.81198        -0.13917
C         40.28494        32.96628         0.05432
C         39.03343        33.68583         0.40601
C         40.25599        35.93188         0.51433
C         38.98551        35.14699         0.28835
C         40.26005        37.23652        -0.27704
C         38.93717        37.90003        -0.63516
C         40.26211        40.09738        -0.91031
C         38.99499        39.42172        -0.55803
C         40.29266        41.62537        -1.05577
C         38.98809        42.36316        -0.91135
C         40.35227        44.34471        -0.10182
C         39.02773        43.77978        -0.40343
C         40.48339        45.69949         0.52848
C         39.22842        46.52681         0.72286
C         40.57693        48.55891         1.61011
C         39.66697        47.77566         1.36612
C         42.10340        24.99018         1.77717
C         40.95769        25.42622         1.09602
C         42.61231        26.77448        -0.09588
C         41.25225        26.48878         0.15774
C         42.78921        28.87896        -0.68604
C         41.51673        29.47902        -0.60810
C         42.76186        31.58136        -0.40585
C         41.52203        30.89276        -0.44014
C         42.71748        33.07483        -0.59294
C         41.60489        33.66923         0.38236
C         42.70258        35.90350         0.25088
C         41.55050        35.19037         0.26026
C         42.68488        37.40664         0.50931
C         41.52579        38.01679        -0.24544
C         42.75478        40.13494        -0.55621
C         41.55511        39.46788        -0.53851
C         42.85539        41.56316        -1.09214
C         41.55967        42.32549        -0.82988
C         42.80877        44.45121        -0.50166
C         41.55218        43.69302        -0.48489
C         42.79142        45.82420        -0.39353
C         41.45530        46.47565        -0.36772
C         42.88927        48.65981         1.03702
C         41.83568        49.26096         1.68875
C         43.28708        25.41040         1.59044
C         45.09047        26.89258         0.26251
C         43.73792        26.32807         0.62586
C         44.97852        28.72158         0.59934
C         43.97759        29.48669        -0.24780
C         45.29588        31.57620        -0.14161
C         43.97213        30.89660        -0.19571
C         45.31323        33.04543        -0.09918
C         44.05667        33.77811        -0.38119
C         45.22178        35.84686         0.56277
C         44.00057        35.22731        -0.00096
C         45.20095        37.38834         0.57318
C         43.97962        38.11209         0.17770
C         45.28377        40.16861        -0.31483
C         43.99310        39.42306        -0.22977
C         45.25742        41.66055        -0.25440
C         44.10448        42.30596        -0.61004
C         45.27775        44.58847        -0.30848
C         44.11269        43.78506        -0.90406
C         45.25108        46.10658        -0.74470
C         43.94222        46.68730        -0.25808
C         43.62575        47.85381         0.40095
C         46.96818        27.35591         1.91410
C         46.16452        26.70019         1.23498
C         47.19856        28.78504         1.69839
C         46.31830        29.42340         0.86267
C         47.80411        31.60997         0.51594
C         46.54199        30.80691         0.32217
C         47.75675        32.97876         0.23880
C         46.50857        33.72294         0.12201
C         47.67322        35.89601         0.57919
C         46.50947        35.16172         0.38390
C         47.66244        37.33422         0.68477
C         46.48506        38.04092         0.48719
C         47.69131        40.20409         0.61057
C         46.53724        39.45116         0.08749
C         47.53691        41.62837         0.69099
C         46.47534        42.35919         0.18601
C         47.83365        44.61858         0.15669
C         46.51511        43.86135         0.21082
C         47.52659        45.98401        -0.05553
C         46.52271        46.71365        -0.15190
C         50.57953        29.29202         1.65248
C         49.27216        29.85821         1.54289
C         50.29692        31.59606        -0.04449
C         49.10952        30.97787         0.71996
C         50.32275        33.11205         0.13640
C         49.00555        33.76022         0.05456
C         50.22517        35.98823         0.59015
C         48.97356        35.27218         0.26780
C         50.10689        37.35685         0.99838
C         48.90259        38.06579         0.88530
C         50.86855        40.77940         0.69873
C         48.83184        39.50557         0.99635
C         50.76042        42.16782         0.39721
C         49.51644        42.81941         0.58477
C         50.30426        44.68405        -0.53492
C         49.12256        44.09182         0.04758
C         51.57564        29.86422         1.11082
C         52.74150        31.93396         0.11458
C         51.75664        30.98283         0.32946
C         52.67433        33.14739        -0.27035
C         51.47400        33.90767         0.03987
C         52.50269        36.26015         0.10281
C         51.43748        35.32969         0.23753
C         52.75074        37.48156        -0.02400
C         52.04736        38.58203         0.54050
C         52.76767        40.72527        -0.66145
C         51.92606        39.92761         0.19224
C         52.70668        41.90584        -1.03560
C         51.98206        42.95991        -0.22132
C         51.36016        44.14797        -0.91493
O         35.09462        29.20207         1.46699
O         41.15357        47.43660        -1.03793
O         40.29644        40.74015        -2.24521
O         46.20593        30.93291        -1.10432
O         48.56851        42.25412         1.42040
O         41.92493        33.39648         1.69270
O         45.03152        36.56835         1.80372
O         45.48143        44.42986         1.10885
O         32.12596        39.06793         2.15755
O         38.34578        33.10687         1.58125
O         48.95207        34.69072        -1.08341
O         35.79078        29.35940        -2.24551
O         38.40128        46.66422        -0.45537
O         48.26233        29.37752         2.34988
O         38.40457        26.53925        -2.07491
O         44.24320        34.83949        -1.40058
O         42.88824        27.57635        -1.20838
O         51.18041        38.10213         1.54441
O         49.92073        40.21254         1.55421
O         31.89372        33.90378        -1.23770
O         46.21387        39.67323        -1.34694
O         34.47701        39.65605        -1.53629
O         38.87576        43.47718        -1.86109
O         41.15695        37.21295        -1.42994
O         37.21222        41.53164        -2.27104
H         37.63933        42.28053        -2.74702
O         45.46352        26.60761        -1.04308
H         44.67208        26.65859        -1.62191
O         42.46996        37.64430         1.92133
H         43.20195        37.19376         2.40341
O         33.69956        42.57290        -1.58532
H         34.48973        42.87648        -2.07943
O         41.94956        50.41390         2.37039
H         41.09042        50.67701         2.75389
O         31.00806        42.74067        -1.11102
H         30.98711        41.82970        -1.49485
O         42.98184        41.44329        -2.54735
H         42.11313        41.09865        -2.87466
O         41.09018        45.56370         1.84048
H         41.98171        45.16615         1.73412
O         32.83784        31.29416         1.15854
H         32.09290        31.70163         1.65170
O         33.17855        41.65102         1.85740
H         32.61591        40.99501         2.32890
O         35.33250        35.94341         2.17676
H         35.53850        35.04351         2.51001
O         31.82194        34.49277         2.32040
H         31.85978        35.22437         2.97186
O         44.23102        43.88906        -2.34381
H         43.73831        43.13109        -2.74658
O         44.29372        28.68175         1.86012
H         44.89667        28.31571         2.54356
O         35.46007        43.20056         2.42633
H         34.57297        42.78123         2.53273
O         38.99675        30.42300         1.28024
H         38.93764        31.26161         1.80324
O         42.26461        33.32420        -1.92470
H         42.76072        34.11073        -2.26024
O         50.07404        31.33013        -1.42882
H         50.68701        31.87963        -1.96084
O         52.79303        43.39294         0.83330
H         53.51983        43.94708         0.48294
O         33.80886        31.15055        -2.31046
H         34.49192        30.58018        -2.74422
O         32.03537        40.27799        -1.32955
H         32.77106        40.33037        -1.98929
O         38.72097        37.65816        -2.06133
H         39.60143        37.74692        -2.49790
O         40.20396        36.27372         1.92460
H         40.48519        35.47881         2.42974
O         45.33943        46.19654        -2.14344
H         44.99209        47.06038        -2.44400
