         404
 CSIRO Nanostructure Databank - Neutral Graphene Oxide Data Set
C          1.30937         3.62921        -1.47018
C          0.10686         4.33169        -1.50933
C          1.20406         6.34525        -0.66299
C          0.04796         5.66894        -1.11488
C          1.18123         7.73605        -0.25476
C         -0.02714         8.47319        -0.21260
C          1.15055        10.50906         0.43827
C         -0.04378         9.81309         0.11894
C          1.14524        11.96622         0.59809
C         -0.06133        12.70663         0.55455
C          1.15537        14.82194         0.53626
C         -0.05540        14.08873         0.55379
C          1.17612        16.26997         0.49219
C         -0.02634        17.00217         0.55060
C          1.17788        19.10477         0.38820
C         -0.02421        18.38691         0.50351
C          1.13382        20.58878         0.31701
C         -0.11228        21.30969        -0.05520
C          1.10931        23.34767        -0.81852
C         -0.11886        22.58498        -0.48503
C          1.12245        24.86627        -0.96331
C         -0.10789        25.65829        -0.73199
C          1.13897        27.77432        -0.58082
C         -0.09465        27.00671        -0.62826
C          1.14983        29.20689        -0.61789
C         -0.02293        29.97015        -0.91262
C          1.24991        32.06631        -0.92572
C          0.03319        31.33258        -1.07859
C          1.31949        33.48847        -1.13475
C          0.11492        34.27111        -1.34208
C          1.37046        36.37869        -1.56630
C          0.11777        35.62357        -1.46039
C          1.40225        37.82598        -1.29951
C          3.72242         3.53764        -1.00965
C          2.49269         4.25627        -1.01971
C          3.61750         6.29007        -0.14872
C          2.43655         5.63466        -0.60836
C          3.63298         7.66194         0.15231
C          2.39027         8.39743         0.10847
C          3.60915        10.44456         0.85358
C          2.35615         9.77685         0.46128
C          3.61705        11.97277         0.91516
C          2.35698        12.68825         0.66597
C          3.63757        14.81494         0.49563
C          2.37928        14.10577         0.57632
C          3.65184        16.23372         0.35863
C          2.41772        16.97075         0.39002
C          3.66687        19.11850         0.16658
C          2.41086        18.40436         0.31776
C          3.68886        20.52258         0.02247
C          2.42722        21.29719         0.07218
C          3.72358        23.37836        -0.59217
C          2.42167        22.62777        -0.61972
C          3.73800        24.87684        -0.64246
C          2.43020        25.61896        -0.84441
C          3.55834        27.76366        -0.26482
C          2.35880        27.06972        -0.50943
C          3.55632        29.16661        -0.17509
C          2.37550        29.91051        -0.43190
C          3.63951        32.06821        -0.34802
C          2.42793        31.35286        -0.55710
C          3.72168        33.46060        -0.55188
C          2.55550        34.15155        -1.00241
C          3.82941        36.32110        -0.79722
C          2.66414        35.58602        -1.30149
C          3.80147        37.73873        -0.74731
C          2.56246        38.45683        -1.00084
C          6.13481         3.41218        -0.53283
C          4.91204         4.11026        -0.54163
C          6.12521         6.21152         0.29088
C          4.83559         5.48086         0.02387
C          6.12381         7.68134         0.39060
C          4.88768         8.35897         0.41815
C          6.10320        10.49161         0.77329
C          4.89197         9.76189         0.64927
C          6.10901        11.93158         0.75025
C          4.88963        12.67201         0.68777
C          6.10850        14.76377         0.18293
C          4.85241        14.06379         0.47756
C          6.10622        16.22919         0.13005
C          4.90796        16.94027         0.19396
C          6.11549        19.10689         0.03348
C          4.90231        18.39426         0.10984
C          6.13823        20.52949         0.05666
C          4.91031        21.24210        -0.03307
C          6.13130        23.38866        -0.00986
C          4.94155        22.67826        -0.11908
C          6.11175        24.85188         0.10194
C          4.92051        25.56226        -0.05139
C          5.76643        27.82457         0.80035
C          4.90479        27.07359        -0.18799
C          5.99344        29.15404         0.60947
C          4.75792        29.89334         0.27838
C          6.12859        32.03480         0.30126
C          4.80438        31.37826         0.22705
C          6.13812        33.45375         0.12950
C          4.95112        34.16262        -0.26110
C          6.10344        36.32634         0.10593
C          4.96721        35.60127        -0.33527
C          6.12495        37.75221         0.04084
C          4.94831        38.43884        -0.34435
C          8.57783         3.33381        -0.17929
C          7.37854         4.02177        -0.18685
C          8.64799         6.25817         0.20167
C          7.38805         5.51042        -0.06325
C          8.60010         7.69147         0.58840
C          7.35449         8.38224         0.58971
C          8.58618        10.50080         1.00198
C          7.35433         9.79737         0.77891
C          8.56336        11.93454         1.06449
C          7.36842        12.60853         0.79979
C          8.67985        14.79647         0.56192
C          7.42098        14.02723         0.39909
C          8.66750        16.17506         0.21598
C          7.40507        16.86318        -0.13758
C          8.63744        19.11543         0.14635
C          7.39700        18.40581        -0.14735
C          8.61217        20.53984         0.20105
C          7.37317        21.25169         0.10100
C          8.62434        23.37194         0.04500
C          7.38635        22.67489         0.07783
C          8.61092        24.83507        -0.32643
C          7.40690        25.48894         0.28616
C          8.66135        27.60609         0.67689
C          7.57434        26.71125         0.91546
C          8.60362        29.07003         0.94280
C          7.23569        29.87325         0.98588
C          8.54658        32.02132         0.73256
C          7.28752        31.32947         0.66880
C          8.55104        33.45379         0.68303
C          7.33475        34.14837         0.46074
C          8.59889        36.38752         0.77903
C          7.25561        35.60130         0.62818
C          8.57291        37.81051         0.38849
C          7.34597        38.46584         0.21573
C         11.13242         3.33605         0.02170
C          9.83020         3.95488         0.30803
C         11.12118         6.18239         0.76000
C          9.83495         5.44487         0.59561
C         11.08418         7.66778         0.54085
C          9.80406         8.39164         0.77054
C         11.10240        10.48359         1.30415
C          9.81710         9.78259         1.00374
C         11.06978        11.96839         1.58254
C          9.75182        12.75169         1.55817
C         11.10729        14.84997         0.94945
C          9.85770        14.13398         0.93212
C         11.06920        16.25663         0.65371
C          9.87822        16.91377         0.28608
C         11.06163        19.08968         0.26952
C          9.86805        18.38434         0.18475
C         11.04923        20.52117         0.56055
C          9.81519        21.27688         0.34001
C         11.11409        23.41811         0.27193
C          9.84385        22.68723         0.22089
C         11.11846        24.87580         0.11404
C          9.88442        25.58241        -0.01672
C         11.04017        27.79273        -0.03677
C          9.83320        26.98863         0.17038
C         11.03663        29.22804         0.33407
C          9.82820        29.87116         0.66547
C         11.02852        32.03609         0.71582
C          9.79117        31.30235         0.74743
C         11.02343        33.46296         0.78616
C          9.80769        34.17915         0.77420
C         11.04101        36.32432         0.44094
C          9.83296        35.61713         0.68959
C         11.01801        37.75182         0.17536
C          9.79513        38.45921         0.14833
C         13.55325         3.41932        -0.36504
C         12.33489         4.01206         0.10155
C         13.64909         6.18796         0.32270
C         12.41572         5.42110         0.56481
C         13.64171         7.62196         0.71500
C         12.37347         8.40887         0.56765
C         13.60121        10.53469         0.93174
C         12.40264         9.84911         0.93970
C         13.67009        11.98579         1.24644
C         12.35917        12.74921         1.52729
C         13.66967        14.89810         1.40248
C         12.33271        14.18537         1.21861
C         13.62367        16.35930         0.95786
C         12.32518        17.03781         0.70757
C         13.62049        19.15672         0.27918
C         12.35018        18.37151        -0.01591
C         13.61829        20.56241         0.39021
C         12.34689        21.27671         0.62711
C         13.57597        23.42810         0.72497
C         12.30239        22.73886         0.45702
C         13.57145        24.95483         0.63824
C         12.32554        25.58703         0.19922
C         13.62596        27.75235         0.14456
C         12.37706        27.01578        -0.08981
C         13.55340        29.22274         0.04938
C         12.26908        29.94489         0.33243
C         13.54528        32.05505         0.80956
C         12.26518        31.32101         0.59302
C         13.57207        33.51655         0.66258
C         12.30642        34.24285         1.02553
C         13.48850        36.32294         0.21872
C         12.28121        35.64910         0.49141
C         13.45654        37.73514        -0.09247
C         12.22500        38.42167        -0.08540
C         15.91230         3.53048        -1.02942
C         14.73847         4.14059        -0.49025
C         16.04472         6.26898        -0.28464
C         14.79560         5.55525        -0.13109
C         16.14369         7.67252         0.17035
C         14.90759         8.40161         0.59903
C         15.97253        10.60781         0.17704
C         14.84443         9.88467         0.51424
C         16.02622        12.04475         0.34085
C         14.85688        12.75331         0.77658
C         16.06863        14.85543         0.53191
C         14.85673        14.14393         0.81981
C         16.09811        16.27320         0.44857
C         14.79180        16.95714         0.18402
C         16.07454        19.14588         0.41978
C         14.83552        18.45693         0.30100
C         16.05998        20.56197         0.50509
C         14.84218        21.28378         0.45329
C         16.06022        23.45705         0.57433
C         14.85202        22.72164         0.57656
C         16.05659        24.91313         0.51881
C         14.85896        25.63947         0.44503
C         16.10296        27.77922         0.40716
C         14.84211        27.07577         0.30855
C         16.12010        29.19568         0.39662
C         14.85985        29.94210         0.20668
C         16.10718        32.10085         0.51811
C         14.85395        31.34354         0.70847
C         16.04544        33.50881         0.37184
C         14.75994        34.19665         0.43248
C         15.93846        36.31959        -0.09550
C         14.74498        35.63235         0.21941
C         15.88765        37.72920        -0.41500
C         14.65464        38.40992        -0.39091
C         18.20304         3.64989        -1.92033
C         17.06228         4.26396        -1.28470
C         18.30724         6.42876        -1.30281
C         17.13076         5.66650        -0.92241
C         18.37383         7.82249        -1.07997
C         17.30804         8.48454        -0.30044
C         18.41005        10.68121        -0.61706
C         17.09091         9.95030        -0.60752
C         18.47464        12.02798        -0.21054
C         17.25446        12.72419         0.20024
C         18.51554        14.86006         0.20627
C         17.28917        14.13990         0.36218
C         18.51804        16.24515         0.09115
C         17.29554        16.97085         0.23883
C         18.55449        19.09630         0.25247
C         17.32063        18.42102         0.30496
C         18.62553        20.52335         0.61391
C         17.29600        21.30370         0.76006
C         18.54530        23.45385         0.53911
C         17.30814        22.76532         0.59174
C         18.54756        24.89607         0.51953
C         17.31647        25.61197         0.50064
C         18.56688        27.74010         0.58597
C         17.32425        27.04075         0.50270
C         18.55865        29.19973         0.76155
C         17.30624        29.93484         0.56014
C         18.56802        32.07636         0.34551
C         17.32281        31.36822         0.48792
C         18.52751        33.54589         0.29227
C         17.23916        34.24767         0.18090
C         18.38359        36.33975        -0.54414
C         17.20334        35.63828        -0.12267
C         18.29321        37.72715        -0.90543
C         17.06444        38.40385        -0.79784
C         19.30395         4.37704        -2.26212
C         20.46867         6.56756        -2.43218
C         19.37240         5.79320        -1.99811
C         20.52664         7.93471        -2.18521
C         19.48351         8.58929        -1.49601
C         20.76225        10.72929        -1.19428
C         19.55346        10.01352        -1.11885
C         20.84173        12.05071        -0.75341
C         19.71621        12.71172        -0.25273
C         21.02751        14.89714         0.05654
C         19.80001        14.08327         0.38678
C         21.00133        16.20737        -0.21953
C         19.72106        16.96280        -0.48649
C         20.90578        19.20029        -0.35755
C         19.75970        18.44051        -0.13951
C         20.92785        20.60374        -0.19782
C         19.82330        21.30233         0.28463
C         20.99220        23.48336         0.42460
C         19.79004        22.74024         0.43725
C         20.99460        24.86570         0.47465
C         19.78751        25.60657         0.49097
C         21.00374        27.79402         0.26517
C         19.78975        27.04952         0.50446
C         21.04153        29.15151         0.17128
C         19.89476        29.97829         0.55046
C         20.90909        32.09953        -0.38464
C         19.79440        31.41293         0.19994
C         20.88041        33.43170        -0.68752
C         19.80070        34.28882        -0.21134
C         20.73645        36.37791        -1.20992
C         19.64270        35.68264        -0.69579
C         20.63752        37.74025        -1.55977
C         19.44367        38.41016        -1.39687
O         14.24096        31.53829         2.03409
O         11.69814        20.83094         1.87968
O          1.01888        23.99439        -2.12718
O          3.25091        22.68721        -1.80664
O         11.08037        11.01981         2.69129
O         19.48636        34.16886         1.20545
O         11.87396         5.73338         1.90960
O          2.24441        35.95396        -2.66014
O          8.14882         6.09227        -1.18159
O         13.01858        17.17052         2.00348
O          5.40643         5.55643         1.38475
O         11.71985         8.10188        -0.72495
O         11.69113        27.47963        -1.30727
O          1.83625        21.29983         1.41834
O          6.86098        14.18134        -0.95629
O          3.36974        25.41828        -1.96232
O         13.27369        12.35858         2.59563
O          9.60823         4.50822         1.68000
O          3.56208        11.15995         2.13710
O         19.36938        29.67771         1.87639
O          7.75364        36.07123         1.91854
O          6.51827        27.12025         1.73696
O         14.26951        29.78796        -1.12929
O         13.49115        24.26611         1.93361
O          7.93541        29.46870         2.18312
O          7.46082        17.61505        -1.39125
O         17.26490         8.02079         1.07332
O          4.43035        30.70611         1.49484
O         14.40696         7.93360         1.91209
O         18.04929        20.82838         1.92282
O         12.33512        18.09498        -1.44800
H         12.15433        18.93110        -1.92490
O         16.60676         9.94293        -1.99744
H         16.56561        10.87273        -2.30592
O         19.52501        16.92536        -1.94442
H         19.52283        15.98326        -2.21652
O         14.49943        16.60996        -1.21324
H         15.17848        17.03496        -1.77801
O          9.43293        13.03277         2.95672
H          9.78209        12.27603         3.48353
O         12.38615        34.38720         2.49708
H         12.65244        33.51641         2.86528
O         19.88902        13.81530         1.82473
H         19.77442        14.66645         2.29744
O         13.92183        14.91854         2.83429
H         13.38467        15.65698         3.20426
O          5.53952        27.33465        -1.49140
H          5.05457        26.77977        -2.14713
O          8.44448        24.89034        -1.79024
H          9.30867        24.67231        -2.19836
H          1.34609         2.57785        -1.78912
H         -0.80619         3.83045        -1.85964
H         -0.91589         6.19191        -1.16902
H         -0.97831         7.98263        -0.45765
H         -1.00647        10.34014         0.11231
H         -1.02946        12.18984         0.53684
H         -1.02050        14.61098         0.53544
H         -0.98885        16.48544         0.65021
H         -0.98132        18.91976         0.57321
H         -1.07614        20.79884         0.08176
H         -1.08029        23.05981        -0.72889
H         -1.06961        25.12768        -0.76577
H         -1.05134        27.53902        -0.53454
H         -0.98311        29.45778        -1.06053
H         -0.88948        31.86034        -1.35362
H         -0.85542        33.75858        -1.29534
H         -0.83158        36.17990        -1.46042
H          0.45754        38.38788        -1.35013
H          3.73323         2.50470        -1.38878
H          2.56868        39.54528        -0.84030
H          6.13701         2.35209        -0.82925
H          4.94178        39.53863        -0.34307
H          8.58942         2.25812        -0.41297
H          7.34838        39.54832         0.01899
H         11.12850         2.32229        -0.40767
H          9.79854        39.52836        -0.11001
H         13.53434         2.36445        -0.67779
H         12.20929        39.50257        -0.28827
H         15.88049         2.46181        -1.28951
H         14.62588        39.48259        -0.63258
H         18.15432         2.57501        -2.14871
H         17.01011        39.46996        -1.06375
H         20.15431         3.89559        -2.76696
H         21.29072         6.07620        -2.97264
H         21.40212         8.50132        -2.53128
H         21.67199        10.24016        -1.56769
H         21.81115        12.56654        -0.79172
H         22.00129        14.40579         0.20920
H         21.95426        16.73796        -0.37061
H         21.82018        18.71335        -0.72355
H         21.84716        21.14078        -0.46928
H         21.95475        22.95457         0.40008
H         21.96090        25.38568         0.49850
H         21.91850        27.23764         0.01955
H         21.96075        29.63439        -0.18840
H         21.78554        31.51252        -0.69213
H         21.67707        33.86128        -1.31089
H         21.70767        35.87528        -1.31443
H         21.52255        38.26507        -1.94464
H         19.35896        39.47486        -1.65720
