         344
 CSIRO Nanostructure Databank - Neutral Graphene Oxide Data Set
C          1.52749         2.68233        -2.69797
C          1.48744         3.99399        -2.20390
C          2.70779         1.95268        -2.69464
C          2.64249         4.61037        -1.68361
C          1.46319         6.75717        -1.17467
C          1.42580         7.98405        -0.53317
C          2.62094         5.95460        -1.11667
C          2.52139         8.44376         0.22634
C          1.11921        10.46774         0.87392
C          1.13572        11.84865         0.82342
C          2.34387         9.64280         1.14475
C          2.31325        12.60880         0.81403
C          1.05669        14.74893         0.43283
C          1.09071        15.98241        -0.13313
C          2.27368        14.10437         1.04690
C          2.31009        16.74129        -0.23516
C          2.32651        18.06738        -0.72298
C          3.90515         2.53303        -2.19665
C          3.85859         3.87092        -1.68287
C          5.12627         1.81526        -2.19857
C          5.05729         4.47236        -1.19351
C          3.77908         6.47966        -0.46687
C          3.72227         7.72155         0.24348
C          5.01386         5.75003        -0.57700
C          4.87190         8.15768         1.17646
C          3.62757        10.48744         1.20877
C          3.60703        11.88622         0.53612
C          4.92639         9.75217         1.28986
C          4.85606        12.68324         0.80296
C          3.54980        14.77047         0.59750
C          3.54339        16.10261         0.12108
C          4.80252        14.08961         0.75711
C          4.76697        16.82899        -0.03456
C          3.51090        18.77683        -0.83958
C          4.75985        18.18126        -0.48998
C          6.33251         2.41593        -1.77812
C          6.29564         3.77121        -1.30579
C          7.57443         1.72098        -1.77207
C          7.51121         4.44056        -1.00335
C          6.22018         6.34712        -0.09864
C          6.18050         7.49457         0.73721
C          7.47912         5.75926        -0.42345
C          7.41668         7.94009         1.19537
C          6.17401        10.55127         1.04635
C          6.17504        11.98946         0.54851
C          7.35952        10.07734         1.49879
C          7.37583        12.76421         1.09514
C          6.01092        14.86345         0.73755
C          6.00252        16.21681         0.34419
C          7.24958        14.25350         1.32637
C          7.21925        16.97605         0.26694
C          5.98054        18.89753        -0.58985
C          7.21281        18.31877        -0.22634
C          8.77155         2.38310        -1.45299
C          8.74052         3.78369        -1.17831
C         10.03467         1.68927        -1.34081
C         10.05033         4.53458        -1.26118
C          8.68925         6.45819        -0.18446
C          8.65281         7.63798         0.56529
C          9.97024         6.06692        -0.90502
C          9.79810         8.64282         0.35779
C          8.64552        10.70710         1.29152
C          8.56907        12.15310         1.35880
C          9.81024         9.99042         1.08633
C          9.83382        12.91234         1.67110
C          8.50044        15.00492         0.95816
C          8.46355        16.32933         0.57279
C          9.77208        14.25531         0.97462
C          9.70908        17.14271         0.51908
C          8.45037        19.04264        -0.40124
C          9.68866        18.49299        -0.09010
C         11.17099         2.31075        -0.85058
C         11.11845         3.77975        -0.46098
C         12.36767         1.59937        -0.55568
C         12.49496         4.45975        -0.59270
C         11.18764         6.59237        -0.13288
C         11.12212         7.90738         0.37339
C         12.40153         5.87813        -0.06312
C         12.30817         8.57508         0.78775
C         11.07545        10.70881         1.13692
C         11.09977        12.13544         1.32570
C         12.28117         9.99084         1.06331
C         12.31306        12.84058         1.16792
C         11.04260        14.97105         0.73593
C         11.02818        16.46075         0.66004
C         12.36021        14.35683         1.14899
C         12.26389        17.11210         0.17122
C         10.93644        19.15511        -0.30791
C         12.19414        18.53095        -0.18026
C         13.50797         2.22740        -0.03660
C         13.57797         3.63400         0.07461
C         14.66477         1.37817         0.45502
C         14.77430         4.28663         0.47218
C         13.56631         6.49450         0.45422
C         13.52930         7.85562         0.81455
C         14.80391         5.71474         0.58198
C         14.78034         8.50027         1.36933
C         13.55104        10.71558         1.45945
C         13.53555        12.15998         1.05767
C         14.82423         9.99540         1.13802
C         14.75491        12.83421         0.72171
C         13.41103        14.87245         0.15855
C         13.41372        16.38881         0.06394
C         14.75135        14.22063         0.39926
C         14.64981        17.01605        -0.52218
C         13.42095        19.20521        -0.42908
C         14.65983        18.52877        -0.46529
C         15.98756         2.11405         0.49111
C         15.99473         3.54340         0.59973
C         17.17539         1.40944         0.47331
C         17.23881         4.23163         0.69170
C         16.02214         6.36598         0.79855
C         16.01800         7.86863         0.72274
C         17.25681         5.66227         0.79924
C         17.29706         8.53229         1.23628
C         16.00069        10.67419         0.87797
C         15.98546        12.11848         0.64890
C         17.27724         9.98022         0.82276
C         17.16372        12.79771         0.27499
C         15.94267        14.89969         0.14311
C         15.90795        16.37982         0.03462
C         17.18144        14.20484         0.09789
C         17.19174        17.11816        -0.12608
C         15.88560        19.19905        -0.60121
C         17.15172        18.53806        -0.55888
C         18.44462         2.07583         0.50988
C         18.46206         3.50592         0.60443
C         19.65893         1.36922         0.43878
C         19.70671         4.20324         0.54913
C         18.50662         6.36836         0.79399
C         18.53916         7.79398         0.82242
C         19.72849         5.63473         0.62736
C         19.72230         8.51790         0.62352
C         18.44634        10.61215         0.44381
C         18.38410        12.01639        -0.00618
C         19.71032         9.91832         0.40440
C         19.67278        12.75086        -0.25860
C         18.42672        14.92476        -0.16254
C         18.43538        16.33980        -0.28773
C         19.65465        14.22424        -0.26967
C         19.62955        17.02436        -0.59383
C         18.35749        19.18834        -0.76284
C         19.62044        18.48741        -0.78907
C         20.90901         2.04340         0.39593
C         20.92167         3.48518         0.41319
C         22.13235         1.34660         0.31929
C         22.16190         4.18690         0.30548
C         20.96252         6.31832         0.52899
C         21.04083         7.80598         0.76803
C         22.16374         5.62087         0.34311
C         22.12934         8.44184        -0.08287
C         20.94509        10.63475         0.14849
C         20.95170        12.04539        -0.04580
C         22.18018         9.93694         0.08650
C         22.16104        12.75551        -0.17796
C         20.87385        14.90891        -0.46710
C         20.83866        16.30439        -0.67182
C         22.14910        14.17782        -0.44621
C         22.13211        17.06412        -0.76063
C         20.78661        19.16133        -1.06632
C         22.02499        18.41455        -1.50154
C         23.37896         2.02864         0.19766
C         23.38172         3.47997         0.18878
C         24.59048         1.34264         0.07937
C         24.62810         4.19688         0.19434
C         23.41801         6.34390         0.26577
C         23.44175         7.74401         0.15591
C         24.64235         5.61900         0.28578
C         24.66429         8.45719         0.12915
C         23.40751        10.61776        -0.02899
C         23.40937        12.05109        -0.13867
C         24.65914         9.89923        -0.01976
C         24.63210        12.74732        -0.31318
C         23.34755        14.83704        -0.68932
C         23.29319        16.22536        -1.28976
C         24.61138        14.15009        -0.60854
C         24.56310        17.01042        -1.16513
C         23.33306        19.14012        -1.32078
C         24.54757        18.43320        -1.22354
C         25.81677         2.08571        -0.36460
C         25.85794         3.50411         0.14266
C         27.11724         1.35622        -0.23737
C         27.06922         4.17905         0.42436
C         25.87982         6.31928         0.35663
C         25.88322         7.74761         0.27774
C         27.08732         5.57918         0.54130
C         27.14075         8.46288         0.28002
C         25.88591        10.59425        -0.11653
C         25.88540        12.04084        -0.30531
C         27.12308         9.89114         0.01866
C         27.08339        12.74661        -0.47105
C         25.82755        14.83481        -0.82947
C         25.81307        16.26226        -1.19827
C         27.08076        14.16911        -0.66767
C         27.11426        17.04959        -1.11140
C         25.78659        19.15531        -1.07508
C         27.01554        18.51317        -0.91341
C         28.27288         1.96968         0.11883
C         28.27804         3.32964         0.80302
C         29.53474         1.28895        -0.09672
C         29.60280         4.08440         0.63780
C         28.31356         6.35006         1.00394
C         28.32962         7.78038         0.49901
C         29.62920         5.59931         0.73203
C         29.62395         8.52654         0.66315
C         28.35943        10.58825        -0.08550
C         28.37698        11.98833        -0.66169
C         29.57209         9.93944         0.13029
C         29.59715        12.75657        -0.22736
C         28.29976        14.91474        -0.58320
C         28.33520        16.33310        -0.67851
C         29.51444        14.21261        -0.10926
C         29.49145        17.09223        -0.42906
C         28.18559        19.20481        -0.54121
C         29.41501        18.52988        -0.32731
C         30.70180         1.98298        -0.20543
C         30.75035         3.40495        -0.00048
C         31.86896         4.14636        -0.34168
C         30.79991         6.31432         0.16065
C         30.81736         7.75219         0.12374
C         31.88889         5.55622        -0.26761
C         31.94764         8.47263        -0.24082
C         30.81438        10.63373        -0.05355
C         30.79941        12.09675        -0.06854
C         31.97912         9.88465        -0.21620
C         32.03442        12.84815         0.01145
C         30.81999        14.98900         0.03056
C         30.85777        16.44027        -0.42078
C         32.05799        14.20405        -0.04385
C         31.89678        17.25248         0.30494
C         30.54977        19.26054         0.09292
C         31.74697        18.60182         0.46827
O          9.93985         6.78862        -2.13235
O          4.26620        10.32645         2.49679
O         30.00937         4.76006         1.88832
O         10.42444        17.11242         1.82273
O         29.99973        14.73937         1.19814
O          7.41508         8.88385         2.22304
O         18.88535        12.18561        -1.38290
O         16.51871        16.99647         1.20257
O         10.40019        14.27083        -0.36823
O         26.62834        16.58152        -2.40903
O          6.33953        11.97090        -0.92459
H          7.18144        11.50617        -1.12760
O         13.01653        14.41094        -1.16304
H         13.62843        14.83581        -1.80804
O         15.90801         8.19756        -0.68674
H         16.62381         7.73521        -1.17083
O         14.65613        16.64247        -1.94942
H         13.95955        17.17086        -2.39491
O          2.12339         9.05585         2.46675
H          2.26898         9.76906         3.12696
O         29.84929         8.65530         2.11742
H         29.32181         7.94027         2.55638
O         31.29169        16.38097        -1.82610
H         31.32277        17.30124        -2.16379
O         22.48985        17.37682         0.61588
H         21.74955        17.88546         1.00977
O         12.91304         4.51107        -1.97863
H         12.08916         4.58361        -2.53358
O         23.10367        15.97084        -2.73068
H         23.95721        15.64100        -3.08599
O         28.19349         6.47010         2.46592
H         28.66197         5.68793         2.84528
O          7.10259        14.40005         2.79133
H          7.21753        15.34997         3.00771
O         25.64253         2.22264        -1.84149
H         24.76778         2.64377        -1.98841
O          9.91467        13.20666         3.09618
H          9.67871        12.39450         3.59188
O         10.71562         3.84857         0.92959
H         11.33488         3.29951         1.45466
O         28.50815        11.81580        -2.12283
H         27.71994        11.31971        -2.43025
O          3.61472        11.59148        -0.90277
H          4.54800        11.67490        -1.22536
O         14.77031         0.17015        -0.30193
H         14.97631         0.40948        -1.22874
O         21.76043         8.19797        -1.47424
H         22.38896         8.68633        -2.04571
O         13.49142        10.70742         2.94665
H         13.75769         9.78864         3.21753
O          2.17924        14.29692         2.51483
H          2.14269        15.26217         2.68457
O         14.71892         8.25794         2.80631
H         15.63626         8.37515         3.16204
O         21.43875         7.98653         2.16275
H         20.83809         7.44791         2.71916
O         12.71274        14.82546         2.46207
H         12.02593        14.51775         3.09238
O         10.38167         4.45292        -2.66913
H         10.18314         5.39234        -2.99225
O         17.32028         8.48556         2.71157
H         18.08881         9.01811         3.00780
O          9.57965         9.12473        -1.00328
H          9.73495         8.33178        -1.62217
O         28.11192         3.02928         2.21752
H         28.77543         3.56475         2.71023
O         21.84571        18.26160        -2.94012
H         22.36618        17.46985        -3.22849
O          4.54824         7.64790         2.47809
H          3.70771         8.09181         2.75838
H          0.60629         2.22839        -3.08934
H          0.52875         4.52964        -2.21729
H          2.72747         0.92501        -3.08469
H          0.57186         6.41285        -1.71554
H          0.50970         8.58823        -0.58118
H          0.14937         9.96652         1.00888
H          0.16337        12.36042         0.87269
H          0.08929        14.23393         0.51190
H          0.16382        16.43448        -0.51851
H          1.37516        18.54079        -1.00698
H          5.13705         0.77852        -2.56733
H          3.49793        19.81290        -1.20745
H          7.59474         0.65398        -2.03851
H          5.96147        19.93175        -0.96511
H         10.06483         0.61403        -1.57852
H          8.39906        20.05263        -0.83599
H         12.39318         0.50856        -0.70518
H         10.90871        20.19851        -0.65941
H         14.42351         1.06453         1.51275
H         13.40993        20.29928        -0.55342
H         17.14884         0.31255         0.39132
H         15.87766        20.29405        -0.72138
H         19.64181         0.27001         0.39180
H         18.36103        20.26197        -1.00589
H         22.12691         0.24642         0.31713
H         20.74771        20.24727        -1.24705
H         24.59574         0.24245         0.06477
H         23.35973        20.23784        -1.40464
H         27.16125         0.34830        -0.68077
H         25.74257        20.25127        -0.98893
H         29.51080         0.21114        -0.31593
H         28.14240        20.29365        -0.39076
H         31.63012         1.46986        -0.49609
H         32.74666         3.62811        -0.75438
H         32.79344         6.06312        -0.62876
H         32.86767         7.95169        -0.54094
H         32.93581        10.38189        -0.42578
H         32.98625        12.29903         0.00626
H         33.01367        14.73438        -0.16547
H         32.83738        16.76209         0.59357
H         30.46989        20.35032         0.20927
H         32.55921        19.19317         0.91584
