         671
 CSIRO Nanostructure Databank - Neutral Graphene Oxide Data Set
C          5.92460        31.66339         0.24821
C          5.92742        33.01947         0.38163
C          8.41121        27.42743        -0.29416
C          8.38877        28.82998        -0.34058
C          7.17985        29.55994        -0.03200
C          8.32610        31.72086        -0.52744
C          7.12820        30.92850        -0.06039
C          8.38441        33.11533         0.04213
C          7.15806        33.79050         0.33332
C          8.38803        35.88728         0.65424
C          7.16810        35.15312         0.62233
C          8.40468        37.27609         0.89310
C         10.79120        23.13833        -0.34104
C         10.86104        24.59027        -0.74673
C          9.65114        25.31415        -0.52263
C         10.69215        27.44012        -1.30723
C          9.57465        26.69268        -0.62480
C         10.85049        28.84695        -0.76447
C          9.60848        29.55967        -0.52979
C         10.83415        31.66277        -0.27680
C          9.62558        30.96732        -0.38508
C         10.85979        33.07569        -0.07714
C          9.60769        33.78895         0.12976
C         10.85715        35.88059         0.54105
C          9.62618        35.18634         0.44582
C         10.86156        37.27905         0.80692
C          9.61999        37.99402         0.94961
C         10.83893        40.15025         1.18323
C          9.64509        39.40401         1.09835
C         10.73003        41.58965         1.08193
C         13.29138        18.86642        -0.05414
C         13.28023        20.26133        -0.28331
C         12.07164        21.01014        -0.30757
C         13.30597        23.07439        -0.73029
C         12.08508        22.38493        -0.48124
C         13.32117        24.52414        -0.98863
C         12.03862        25.20615        -1.16015
C         13.33001        27.40087        -1.38283
C         12.01879        26.66952        -1.43238
C         13.35569        28.72001        -0.63010
C         12.05455        29.48406        -0.66713
C         13.25769        31.68063        -0.90433
C         12.14001        30.91135        -0.17975
C         13.33326        33.08612        -0.33461
C         12.09426        33.75691         0.01977
C         13.31410        35.82193         0.56145
C         12.10168        35.15672         0.37809
C         13.32848        37.24808         0.75502
C         12.08313        38.00196         0.88800
C         13.35473        40.09346         0.99857
C         12.09186        39.40628         1.13163
C         13.58335        41.41254         1.33536
C         11.74669        42.51053         1.39799
C         13.32464        44.43070         0.99602
C         12.00923        43.82123         0.96019
C         13.36506        45.86230         0.88708
C         15.63967        14.56816         0.97173
C         15.70118        16.03715         0.55807
C         14.51404        16.74211         0.25784
C         15.74283        18.86626        -0.09870
C         14.50213        18.15020         0.02025
C         15.75139        20.24077        -0.33074
C         14.51495        20.96004        -0.47302
C         15.77372        23.05954        -1.17875
C         14.50513        22.34679        -0.76418
C         15.79900        24.48436        -0.57718
C         14.51901        25.20560        -0.94685
C         15.85760        27.39123        -0.93984
C         14.64973        26.62091        -1.43974
C         15.83931        28.81699        -0.93743
C         14.60041        29.53925        -0.89832
C         15.81263        31.65408        -0.88904
C         14.58020        30.92899        -0.85217
C         15.80413        33.08904        -0.59920
C         14.54494        33.72638        -0.21647
C         15.86989        35.78491         0.49366
C         14.57818        34.97845         0.63302
C         15.82538        37.26750         0.62501
C         14.53137        37.94365         0.65450
C         15.64920        40.15923        -0.12069
C         14.46354        39.38029         0.35081
C         15.68425        41.61550         0.12381
C         14.62742        42.24438         0.77604
C         15.82676        44.40366         0.71095
C         14.54266        43.68701         0.88916
C         15.84461        45.96332         0.75860
C         14.53107        46.63842         0.75058
C         15.68393        48.82631         0.35096
C         14.51037        48.03477         0.54429
C         15.63503        50.20087         0.22916
C         18.14472        10.33982         0.12508
C         18.16427        11.71562         0.17457
C         16.92630        12.49486         0.33006
C         18.20533        14.48701         1.03764
C         16.90798        13.81088         0.65751
C         18.17639        16.03050         0.92737
C         16.91808        16.72009         0.57335
C         18.24940        18.85618         0.16661
C         17.01339        18.05339        -0.15305
C         18.23133        20.36135         0.19998
C         16.99990        21.00217        -0.40106
C         18.31424        23.04858        -1.06847
C         17.02050        22.31098        -0.78054
C         18.27634        24.55213        -0.88738
C         17.08630        25.24466        -0.89271
C         18.31411        27.43127        -1.09112
C         17.08152        26.70573        -0.91984
C         18.30586        28.81807        -1.19856
C         17.06937        29.53499        -1.04323
C         18.27184        31.71322        -1.31853
C         17.02659        30.95915        -1.06867
C         18.25001        33.19764        -1.03511
C         16.99380        33.79407        -0.55848
C         18.33066        35.92876        -0.10511
C         16.98942        35.28662        -0.39960
C         18.32149        37.35779         0.11660
C         17.06537        38.12800         0.48192
C         18.17476        40.21815        -0.00905
C         16.94663        39.39744        -0.39317
C         18.15411        41.69537         0.00726
C         16.84251        42.37303        -0.46989
C         18.12103        44.53924        -0.48989
C         16.89658        43.80521        -0.05355
C         18.14188        46.01524        -0.19619
C         17.01513        46.67502         0.21895
C         18.04327        48.78224        -0.62558
C         17.06078        48.17720         0.39984
C         18.10430        50.30065        -0.49235
C         16.84226        51.00819        -0.06332
C         18.20566        53.00559         0.48453
C         17.00644        52.35617         0.50374
C         18.28705        54.36750         1.14491
C         20.62050         6.01230         0.77225
C         20.60221         7.46129         0.31870
C         19.43354         8.12625         0.15756
C         20.67664        10.33784        -0.25868
C         19.35934         9.56711        -0.17727
C         20.64457        11.78495         0.02085
C         19.43132        12.42667         0.14971
C         20.68858        14.60076         0.52305
C         19.35372        13.93329         0.14479
C         20.66678        16.07911         0.14257
C         19.45551        16.78328         0.69851
C         20.70609        18.95956         0.50688
C         19.43957        18.23510         0.37964
C         20.74895        20.30900         0.26437
C         19.53014        20.91865        -0.40097
C         20.68602        23.22648        -0.02877
C         19.46462        22.42661        -0.31224
C         20.73116        24.63630        -0.50219
C         19.55956        25.24318        -0.91147
C         20.86499        27.36499        -1.40969
C         19.53282        26.61821        -1.53622
C         20.85932        28.86611        -1.51347
C         19.52346        29.57686        -1.72966
C         20.75727        31.74427        -1.18259
C         19.57600        31.02611        -1.28952
C         20.72679        33.18792        -0.97228
C         19.53753        33.87470        -0.79845
C         20.78849        35.97467        -0.34826
C         19.52806        35.27483        -0.42399
C         20.77932        37.33332         0.30061
C         19.49217        38.07415         0.07856
C         20.69040        40.32822         0.19737
C         19.50430        39.54281        -0.29083
C         20.67756        41.73120         0.17036
C         19.43422        42.41781         0.04795
C         20.65716        44.62627         0.11391
C         19.37553        43.86991         0.11721
C         20.66447        45.94793        -0.61530
C         19.38802        46.72564        -0.41106
C         20.62233        48.83611        -0.59715
C         19.39448        48.10218        -0.48645
C         20.59736        50.24693        -0.56166
C         19.40881        50.97235        -0.32349
C         20.66408        53.05355         0.13112
C         19.43799        52.35680         0.04782
C         20.72272        54.45635         0.39030
C         19.51706        55.17245         0.78411
C         20.70899        57.35029         0.79441
C         19.52248        56.51416         1.02851
C         20.82048        58.67337         1.41409
C         23.12491         3.32688        -0.29647
C         21.91893         3.97647         0.00677
C         23.13182         6.01845         0.53264
C         21.92152         5.32110         0.41467
C         23.05244         7.46540         0.99112
C         21.92172         8.13841         0.22457
C         23.09123        10.40748         0.60940
C         21.96691         9.60897        -0.03077
C         23.16893        11.80970         0.05144
C         21.91738        12.51466        -0.03552
C         23.08541        14.69125        -0.31805
C         21.89296        13.90336        -0.05634
C         23.10901        16.12439         0.08585
C         21.97293        16.77110         0.45237
C         23.21279        18.96602         0.61509
C         21.94482        18.20547         0.95002
C         23.21070        20.38229         0.61727
C         21.95588        21.10738         0.43506
C         23.13137        23.30501         0.51278
C         21.93628        22.48866         0.27374
C         23.18331        24.71951         0.05148
C         21.99897        25.35393        -0.43547
C         23.24258        27.47033        -0.65887
C         22.04666        26.71991        -0.79174
C         23.25645        28.91083        -0.82348
C         22.05650        29.62357        -1.07108
C         23.27394        31.73711        -0.94382
C         22.04754        31.03854        -1.08892
C         23.30021        33.20238        -1.13763
C         21.99516        33.95659        -1.06601
C         23.24843        36.09862        -0.40877
C         22.00488        35.37846        -0.63374
C         23.26351        37.43119         0.01155
C         21.97356        38.20865        -0.09971
C         23.18545        40.35372         0.46639
C         21.91534        39.57159         0.62374
C         23.18989        41.75870         0.48997
C         21.92321        42.48815         0.33663
C         23.13444        44.65409         0.27363
C         21.93008        43.88016         0.23524
C         23.14111        46.02537        -0.05977
C         21.92200        46.73480        -0.37221
C         23.12988        48.86469        -0.56152
C         21.88271        48.11953        -0.51825
C         23.11740        50.22597        -0.79213
C         21.84369        51.03798        -0.88484
C         23.16334        53.12430        -0.29513
C         21.95799        52.27108         0.03532
C         23.17591        54.46814        -0.01512
C         21.94990        55.14883         0.30701
C         23.29915        57.23916         0.73746
C         21.99207        56.61231         0.41449
C         23.30298        58.53708         1.42535
C         22.04846        59.30922         1.58377
C         23.38119        61.35906         1.93906
C         22.15325        60.66341         1.98691
C         24.32948         4.00411        -0.19904
C         25.59713         6.05829         0.25832
C         24.36787         5.36939         0.21800
C         25.70422         7.45767         0.64415
C         24.38034         8.23234         0.92477
C         25.60992        10.34933         0.48836
C         24.40719         9.66868         0.61782
C         25.63146        11.79121         0.29735
C         24.39029        12.47682         0.01744
C         25.69413        14.63181        -0.04237
C         24.45647        13.90138        -0.33391
C         25.70748        16.09970        -0.13914
C         24.38599        16.85785        -0.01521
C         25.66120        18.94248         0.37486
C         24.41256        18.26736         0.39806
C         25.65914        20.35675         0.44597
C         24.45178        21.06974         0.53820
C         25.67190        23.28358         0.34961
C         24.46669        22.54190         0.62857
C         25.67760        24.76800         0.59111
C         24.40204        25.42079         0.07001
C         25.70082        27.50131        -0.35557
C         24.44645        26.79557        -0.29483
C         25.71638        28.90760        -0.52893
C         24.48014        29.62870        -0.65558
C         25.75190        31.77364        -0.55739
C         24.49612        31.05147        -0.73162
C         25.79380        33.18142        -0.53364
C         24.59018        33.94456        -0.91063
C         25.78075        36.07703        -0.07415
C         24.55339        35.43166        -0.59622
C         25.71930        37.48064         0.28177
C         24.47046        38.13250         0.29897
C         25.66642        40.28445         1.05712
C         24.39412        39.54577         0.73962
C         25.61857        41.78655         1.09604
C         24.39231        42.49393         0.70639
C         25.62908        44.75248         0.73950
C         24.31078        43.99791         0.96630
C         25.62835        46.07856         0.07876
C         24.39342        46.75520        -0.15168
C         25.60780        48.83518        -0.70290
C         24.38273        48.13906        -0.48574
C         25.64531        50.22367        -0.90796
C         24.37262        50.94243        -1.01275
C         25.68765        53.08602        -0.50354
C         24.39553        52.46942        -0.78034
C         25.68307        54.44689         0.14486
C         24.44990        55.26100        -0.27218
C         25.75823        57.28885         0.52070
C         24.47355        56.60515         0.42873
C         25.81058        58.62588         0.87359
C         24.65620        59.29800         1.46875
C         24.57267        60.75260         1.59796
C         26.88102         8.24178         0.30404
C         28.09171        10.37664         0.35236
C         26.87915         9.63080         0.41555
C         28.10410        11.77971         0.38656
C         26.84471        12.49489         0.31746
C         28.11815        14.66428         0.39009
C         26.86437        13.94156         0.25244
C         28.14187        16.05985         0.42976
C         26.92801        16.82281         0.25839
C         28.15215        18.91287         0.83670
C         26.90057        18.20217         0.38548
C         28.21655        20.37622         0.45996
C         26.93281        21.06197         0.19526
C         28.17497        23.29287         0.27573
C         26.90873        22.56678         0.10053
C         28.17239        24.65172         0.09591
C         26.93042        25.41059         0.03838
C         28.20222        27.35531        -0.84166
C         26.92893        26.74469        -0.29732
C         28.20198        28.89179        -0.80823
C         26.95287        29.63405        -0.58141
C         28.23515        31.77515        -0.29732
C         26.98632        31.04226        -0.48425
C         28.22310        33.19971        -0.10793
C         26.99902        33.90540        -0.25145
C         28.24789        36.05629         0.08694
C         26.96519        35.34198        -0.07608
C         28.21889        37.53125         0.34521
C         26.92662        38.22617         0.54644
C         28.19706        40.34587         0.82692
C         26.94699        39.58647         0.84214
C         28.19827        41.77288         0.79419
C         26.95439        42.52672         1.06246
C         28.16791        44.63464         0.26619
C         26.94316        44.00392         0.79702
C         28.10865        46.01327        -0.06400
C         26.87170        46.69485        -0.19013
C         28.13896        48.83123        -0.98092
C         26.85915        48.06153        -0.76364
C         28.10825        50.30161        -1.02190
C         26.87307        50.96966        -0.96021
C         28.14234        53.11094        -0.65548
C         26.86993        52.40397        -0.73856
C         28.15042        54.49109        -0.41844
C         26.96539        55.21497        -0.09634
C         26.95617        56.57893         0.12552
C         29.32193        12.50573         0.41768
C         30.59330        14.60889         0.47362
C         29.36622        13.91786         0.43702
C         30.66403        16.03384         0.52829
C         29.40033        16.78597         0.49931
C         30.70709        18.88863         0.26926
C         29.40639        18.15734         0.51435
C         30.67524        20.37828         0.57377
C         29.39787        21.06800         0.53289
C         30.66940        23.27169         0.53527
C         29.37652        22.56044         0.80560
C         30.68266        24.61562         0.29161
C         29.44293        25.36490         0.05706
C         30.68771        27.45013        -0.04732
C         29.43932        26.70053        -0.23741
C         30.70455        28.92565        -0.20235
C         29.48386        29.66764        -0.62819
C         30.71887        31.75175         0.01666
C         29.45743        31.08489        -0.23852
C         30.70096        33.18019         0.25416
C         29.47023        33.89186         0.19097
C         30.69266        35.99663         0.65789
C         29.48235        35.29696         0.37082
C         30.69421        37.45336         0.71960
C         29.40540        38.16774         1.02585
C         30.64374        40.35192         0.56769
C         29.42383        39.65557         0.76058
C         30.65271        41.77542         0.45819
C         29.40261        42.49262         0.55962
C         30.65123        44.64723         0.24124
C         29.37495        43.90749         0.32830
C         30.64731        45.99431        -0.45041
C         29.38693        46.77353        -0.15467
C         30.69762        48.84160        -0.96698
C         29.41955        48.21293        -0.52742
C         30.60824        50.26660        -1.49857
C         29.34923        51.00919        -1.07077
C         29.35001        52.38602        -0.90746
C         31.85339        16.71461         0.73065
C         33.13587        18.92493         0.78258
C         31.84079        18.19682         1.02510
C         33.14167        20.30122         0.64830
C         31.87188        21.04430         0.66879
C         33.13342        23.15034         0.10795
C         31.94919        22.54225         0.88893
C         33.19132        24.63443         0.36478
C         31.96516        25.33716         0.24165
C         33.25560        27.39636        -0.25301
C         31.95357        26.70987         0.03838
C         33.17137        28.89084         0.25299
C         32.01363        29.63481        -0.46308
C         33.23621        31.82126        -0.22793
C         31.93843        31.07972        -0.06662
C         33.17624        33.16535         0.43956
C         31.93754        33.86757         0.50682
C         33.16497        36.03194         0.95527
C         31.90881        35.27900         0.75004
C         33.15540        37.51454         0.72318
C         31.85476        38.18643         0.58756
C         33.08593        40.29310         0.18311
C         31.87257        39.62522         0.46305
C         33.08183        41.70628         0.01177
C         31.89196        42.43141         0.21711
C         33.14319        44.59344        -0.36656
C         31.95298        43.90338         0.20706
C         33.12999        45.94935        -0.57684
C         31.94099        46.80102        -0.18290
C         31.85962        48.15801        -0.87214
C         34.37485        21.02876         0.54713
C         35.63667        23.12710         0.36095
C         34.42636        22.41946         0.38897
C         35.71541        24.55560         0.42985
C         34.44617        25.31652         0.85205
C         35.76199        27.41251         0.03509
C         34.46746        26.72159         0.31020
C         35.70823        28.86609         0.60561
C         34.47688        29.63286         0.14642
C         35.71340        31.72508         0.31622
C         34.48042        31.00793         0.13142
C         35.71446        33.11421         0.39794
C         34.44791        33.77838         0.74531
C         35.66551        35.99834         0.36278
C         34.49027        35.34095         0.87775
C         35.52185        37.35805        -0.27927
C         34.36701        38.18994         0.23124
C         35.53514        40.25499        -0.40293
C         34.32198        39.54508        -0.00370
C         35.49521        41.62937        -0.58977
C         34.30035        42.39959        -0.39464
C         34.29435        43.77139        -0.62748
C         36.90070        25.21920         0.21984
C         38.22834        27.44861         0.12487
C         37.00843        26.68015         0.58059
C         38.20665        28.85771         0.11348
C         36.99506        29.56707         0.31186
C         38.20458        31.76439         0.16121
C         36.99854        31.01860         0.64087
C         38.16258        33.15954         0.09229
C         36.92778        33.87165         0.33160
C         38.08359        36.01580        -0.17772
C         36.87831        35.29142         0.20910
C         38.03554        37.40459        -0.36421
C         36.81710        38.13452        -0.33296
C         36.76219        39.51224        -0.49691
C         39.41225        29.63216        -0.11508
C         40.59365        31.79527        -0.42844
C         39.40628        31.02834        -0.12090
C         40.56750        33.15980        -0.48079
C         39.35448        33.90317        -0.24473
C         39.29937        35.29075        -0.35260
O         33.22174        36.94934         2.10498
O         17.25696        50.95579        -1.50348
O         23.73732        23.07730         1.83010
O         34.62438        34.46385         2.02512
O         27.51751        48.12941        -2.10698
O         17.97225        40.91558         1.25374
O         24.30809        51.90071        -2.13947
O         25.04167        16.66189        -1.31516
O         26.28708        42.24895         2.33353
O         26.44972        44.76980         1.95388
O         16.18763        45.18318         1.92958
O         24.86091        39.70942         2.14352
O         24.11515        58.56489         2.63104
O         16.18218        36.34839         1.79159
O         28.96514        29.41366        -1.97136
O         19.97207         9.94217        -1.46631
O         12.74158        42.00261         2.27056
O         18.97732        16.58353         2.06232
O         21.21832        28.02970        -2.67166
O         21.21243        57.31886        -0.61125
O         25.22418         7.80790         2.02377
O         28.46178        37.06950        -1.00936
O         14.62384        39.73151        -1.11314
O         26.91871        21.71068        -1.13705
O         19.63674        22.98456         1.01280
O         29.45496        47.81202         0.89721
O         18.13924        32.68514        -2.42116
O         22.64200        33.66299        -2.36111
O         23.76960        14.32767        -1.54425
O         19.83189        44.56513         1.32692
O         24.81090        34.92971        -1.96356
O         30.51716        28.40865         1.14030
O         12.65845        27.24483        -2.65875
O         31.45449        44.52508         1.44862
O         22.34028         8.67038        -1.07501
O         21.81788        39.34586         2.07495
H         22.03417        40.18760         2.53136
O         33.41006        27.35911        -1.70846
H         32.84679        28.07934        -2.10221
O          8.13011        31.90058        -1.97740
H          8.93802        32.32996        -2.33115
O         32.07050        47.08424         1.22596
H         31.20970        47.45968         1.53084
O         19.49155         5.30748         0.25775
H         19.49229         5.39695        -0.71724
O         29.16842        37.98992         2.45772
H         29.92859        38.37432         2.94348
O         18.21839        20.73209         1.60763
H         17.44852        20.29930         2.03176
O         19.02573        14.28836        -1.21993
H         18.33822        13.66409        -1.53593
O         15.00114        26.43510        -2.84961
H         14.15297        26.44821        -3.35582
O         29.23596        22.61543         2.29088
H         29.01779        23.54295         2.53112
O         21.66231        51.48096        -2.24997
H         22.54756        51.77636        -2.58260
O         21.90950        18.11342         2.41012
H         21.65631        18.99273         2.76239
O         17.28415        38.63103         1.82369
H         17.28450        37.85454         2.42656
O         20.88959        14.54741         1.95524
H         20.79155        13.61447         2.24218
O         22.67829        10.55116         2.01216
H         23.44763        10.88124         2.52250
O         18.25520        44.38715        -1.93796
H         19.11872        44.80757        -2.20710
O         12.86306        31.76072        -2.29824
H         13.58796        32.19152        -2.79767
O         28.07401        18.93269         2.31336
H         28.96968        19.15525         2.65091
O         19.59927        39.56082        -1.75842
H         18.71465        39.29571        -2.11647
O         18.40824        14.12923         2.41750
H         18.90881        14.87812         2.82768
O         14.57114        34.43915         1.99667
H         14.98327        35.13172         2.56654
O         15.77875        24.34252         0.87102
H         16.61626        23.91408         1.15121
O         19.30022        26.37524        -2.94777
H         19.60267        27.18485        -3.42407
O         20.83196        36.98870         1.71618
H         20.94909        37.82372         2.23165
O         31.52229        18.33889         2.45445
H         32.24376        17.91533         2.96541
O         30.61794        50.23435        -2.93950
H         29.80717        49.77383        -3.24125
O         17.09543        55.12100         0.90901
H         17.02028        55.27886        -0.05442
O         31.00477        18.75097        -1.14630
H         30.31412        19.22595        -1.65390
O         12.53236        30.86153         1.23407
H         11.72162        30.72902         1.76911
O         32.21642        29.63517        -1.90893
H         32.76726        30.43573        -2.12909
O         25.55578        54.23496         1.58256
H         26.39931        53.85822         1.90992
O         14.53053        13.89758         0.38774
H         13.70545        14.23835         0.78548
O         37.06321        31.05484         2.17145
H         38.00165        30.89520         2.41575
O         37.09983        26.69196         2.03357
H         36.45121        27.35091         2.38811
O         35.55505        28.80711         2.07048
H         35.96692        29.64897         2.41790
O         32.86796        28.87231         1.65223
H         33.69834        28.65730         2.14287
O         18.55648        22.86214        -2.50147
H         17.75420        23.21012        -2.96405
O         16.98771        39.02433        -1.77707
H         16.07452        39.15918        -2.13418
O         13.49255        28.29298         0.76975
H         13.41798        29.11712         1.31203
O         34.41165        25.34848         2.32101
H         34.19601        24.44227         2.63156
O          9.73736        22.48116        -1.06555
H          9.92795        22.56297        -2.02243
O         10.17504        27.61221        -2.65951
H         10.93947        27.87277        -3.22291
O         32.19251        22.77239         2.30264
H         31.36209        22.53091         2.77433
O         28.23170        26.96908        -2.24726
H         28.69707        27.69042        -2.73268
O         17.56618        48.45457        -1.94694
H         17.18130        49.28622        -2.31807
O         19.62515        20.51783        -1.78301
H         19.21730        21.21940        -2.35014
O         20.69871        45.57706        -2.05575
H         20.75235        46.41129        -2.57153
O         24.00661        44.09359         2.38899
H         24.85739        43.91504         2.85927
O         33.39124        32.06031        -1.70689
H         32.69239        32.69998        -1.96733
O         15.77540        23.20062        -2.63104
H         15.49401        22.34440        -3.01691
O         16.60647        35.80502        -1.72477
H         17.20509        35.40122        -2.39018
O         17.16638        17.68537        -1.57650
H         18.04871        17.26528        -1.68584
O         30.62618        45.73036        -1.88142
H         29.73763        45.39762        -2.12765
O         16.77673        42.19640        -1.90626
H         17.30818        42.92407        -2.31703
O         32.81679        22.93505        -1.29668
H         33.54037        23.31842        -1.83487
O         22.21181        51.73345         1.37622
H         22.30786        52.49006         1.99272
O         25.70420        24.98456         2.04687
H         24.94879        24.45910         2.41076
O         20.51354        16.24765        -1.29099
H         21.17581        15.68616        -1.74848
O         19.28658        29.63429        -3.16620
H         20.05203        30.08344        -3.58337
O         36.01112        27.55342        -1.38781
H         35.13593        27.51809        -1.85235
O         17.60987        48.44294         1.71632
H         17.15711        47.86174         2.36354
O         35.16216        37.07032        -1.68937
H         35.25390        37.90968        -2.18999
O         21.89958        38.53633        -1.50484
H         21.83663        37.70547        -2.02093
O         24.55480        55.49359        -1.69595
H         23.75370        55.97730        -1.98747
O         22.64493         7.46123         2.38465
H         23.46290         7.31559         2.91265
H          4.99130        31.09747         0.38948
H          4.99359        33.55329         0.61187
H          7.50711        26.88415         0.02101
H          6.28169        28.98451         0.24162
H          6.22218        35.67559         0.82911
H          7.45313        37.81182         1.02754
H         10.48565        23.09974         0.74239
H          8.78580        24.75129        -0.14149
H          8.68414        39.94014         1.12759
H          9.79573        41.97631         0.64503
H         12.33662        18.33471         0.07302
H         11.11209        20.49663        -0.14999
H         11.19422        44.41566         0.51923
H         12.40009        46.39192         0.88140
H         15.52599        14.54936         2.10189
H         13.54958        16.21308         0.28103
H         13.53462        48.54464         0.51890
H         14.67357        50.72806         0.33532
H         17.20351         9.79584         0.29842
H         15.97282        11.96788         0.17283
H         16.13458        52.85310         0.95638
H         18.32830        54.19078         2.25905
H         20.52571         5.99932         1.89305
H         18.48734         7.58595         0.32203
H         18.62124        56.98516         1.45060
H         19.89828        59.18505         1.72990
H         23.11138         2.27519        -0.61532
H         20.96146         3.44308        -0.07470
H         23.36710        62.44548         2.10955
H         21.23111        61.22413         2.19708
H         25.27420         3.49623        -0.44010
H         26.49599         5.56341        -0.13899
H         26.74955        59.18783         0.75599
H         25.47311        61.35678         1.41593
H         27.79889         7.71722         0.00038
H         29.04627         9.83063         0.32661
H         29.10285        55.03976        -0.48198
H         27.89717        57.14751         0.06061
H         30.26888        11.94500         0.43419
H         31.52887        14.02976         0.50368
H         31.51501        50.84226        -1.18668
H         30.29898        52.94127        -0.95528
H         32.79058        16.15003         0.86141
H         34.08824        18.37213         0.81279
H         34.03254        46.44533        -0.96735
H         32.80229        48.64760        -1.16527
H         35.31793        20.46794         0.64417
H         36.57995        22.55673         0.38350
H         36.41594        42.16035        -0.87598
H         35.21385        44.25692        -0.98887
H         37.79565        24.65805        -0.09376
H         39.19154        26.92675         0.00740
H         38.97247        37.95029        -0.55629
H         37.69722        40.07241        -0.65363
H         40.35050        29.09615        -0.32145
H         41.52874        31.25282        -0.63185
H         41.48343        33.71884        -0.72357
H         40.20948        35.84762        -0.62339
