         324
 CSIRO Nanostructure Databank - Neutral Graphene Oxide Data Set
C          2.72418         1.59374         2.97322
C          2.58460         3.00862         2.87217
C          3.87685         0.97389         2.56436
C          3.58513         3.79499         2.34150
C          2.23956         6.00881         2.59286
C          2.14172         7.34815         2.37946
C          3.50197         5.28258         2.38836
C          3.23254         8.15855         1.87201
C          1.94600        10.31726         2.06052
C          1.89495        11.70491         1.96953
C          3.13545         9.60571         1.79038
C          3.05679        12.47172         1.74132
C          1.78571        14.71476         1.91404
C          1.75703        16.07480         1.95492
C          2.98981        13.96211         1.40549
C          2.94068        16.87583         1.78166
C          2.93131        18.27067         1.67052
C          4.93985         1.72513         1.96690
C          4.78803         3.16688         1.81332
C          6.12609         1.09855         1.58579
C          5.75445         3.88256         1.11502
C          4.58924         6.07909         1.69224
C          4.39723         7.52445         1.43330
C          5.56564         5.31865         0.86447
C          5.51526         8.27524         0.92565
C          4.30429        10.36133         1.46769
C          4.26850        11.78450         1.55505
C          5.49536         9.69724         1.01938
C          5.55281        12.51798         1.49413
C          4.26204        14.71938         1.68711
C          4.21659        16.16106         1.82275
C          5.55485        14.05904         1.63578
C          5.51513        16.99513         1.57034
C          4.08241        19.01458         1.37186
C          5.35163        18.41344         1.19274
C          7.16999         1.79995         0.91855
C          6.80358         3.14174         0.29628
C          8.39698         1.19338         0.70098
C          8.04132         3.98594        -0.06587
C          6.71572         6.15126         0.27751
C          6.69463         7.60880         0.49206
C          7.99117         5.45715         0.07298
C          7.86896         8.34862         0.19916
C          6.63982        10.46779         0.60441
C          6.67270        11.85634         0.83341
C          7.82649         9.78102         0.15377
C          7.76275        12.68576         0.30367
C          6.74297        14.82296         1.13979
C          6.71916        16.28031         1.11104
C          7.81759        14.13595         0.62262
C          7.78830        17.03578         0.66117
C          6.46035        19.10987         0.68257
C          7.71637        18.47619         0.46244
C          9.53909         1.87681         0.16794
C          9.40780         3.32083        -0.16132
C         10.75911         1.26066        -0.01848
C         10.65077         4.13460        -0.09787
C          9.16758         6.19913         0.02598
C          9.10077         7.65266        -0.00770
C         10.46267         5.53720         0.04068
C         10.27010         8.42367        -0.21775
C          9.00043        10.51278        -0.18573
C          8.94500        11.98544        -0.34999
C         10.22394         9.84015        -0.30378
C         10.22891        12.77330        -0.70151
C          9.03797        14.86307         0.19803
C          9.04077        16.36787         0.26644
C         10.28545        14.05916         0.09263
C         10.25228        17.22803         0.26445
C          8.83451        19.18674        -0.03262
C         10.13771        18.59437        -0.13309
C         11.92044         1.99424        -0.47576
C         11.88821         3.43810        -0.39508
C         13.07792         1.31698        -0.89929
C         13.09030         4.08249        -0.84706
C         11.55977         6.43626         0.16343
C         11.53651         7.76114        -0.21017
C         13.32999         5.47574        -0.60510
C         12.73667         8.44639        -0.76709
C         11.49742        10.59551        -0.26967
C         11.51512        12.02441        -0.46291
C         12.84334         9.88469        -0.43103
C         12.74147        12.69744        -0.46017
C         11.51011        14.56137         0.40646
C         11.51999        16.74900         0.54590
C         12.75451        14.11101        -0.17390
C         12.73716        17.29292         0.07908
C         11.34239        19.26825        -0.45270
C         12.63120        18.65395        -0.41966
C         14.21593         1.99444        -1.44766
C         14.12156         3.41505        -1.52017
C         15.43840         1.39913        -1.85020
C         15.13626         4.19042        -2.25835
C         14.07818         6.30762        -1.38098
C         13.94493         7.77769        -1.35494
C         15.05450         5.71064        -2.29841
C         15.16451         8.56896        -1.64303
C         14.02615        10.63946        -0.86269
C         13.98802        12.03700        -0.72273
C         15.16812         9.94240        -1.37998
C         15.13383        12.86694        -1.06168
C         13.87365        14.94063        -0.34546
C         13.88114        16.38742        -0.08245
C         15.09082        14.32606        -0.88211
C         15.13755        16.99741        -0.11123
C         13.75092        19.39852        -0.94210
C         15.06941        19.10866        -0.59405
C         16.55007         2.17636        -2.30343
C         16.43552         3.57537        -2.51883
C         17.83600         1.59753        -2.53562
C         17.51942         4.36770        -2.98674
C         16.26964         6.50923        -2.55112
C         16.26412         7.88481        -2.27896
C         17.44316         5.81572        -3.02749
C         17.33404         8.72265        -2.87264
C         16.46432        10.71089        -1.43671
C         16.27460        12.21282        -1.49753
C         17.40543        10.17925        -2.51913
C         17.40905        12.97249        -2.01519
C         16.24413        15.09217        -1.13776
C         16.32167        16.47908        -0.70057
C         17.38160        14.47918        -1.86172
C         17.47282        17.30570        -0.84232
C         16.31100        19.52012        -1.13287
C         17.50078        18.75865        -0.95117
C         18.90311         2.31183        -3.06343
C         18.72602         3.71017        -3.41150
C         20.15615         1.50754        -3.22377
C         19.68853         4.53997        -4.06587
C         18.60361         6.56477        -3.34885
C         18.54997         8.04101        -3.41480
C         19.76547         5.92032        -3.82430
C         19.88599         8.82122        -3.47973
C         18.72357        10.85302        -2.61358
C         18.71641        12.23951        -2.07762
C         19.87665        10.22632        -2.99360
C         19.97803        13.00442        -2.02600
C         18.69107        15.20848        -1.88505
C         18.71074        16.59972        -1.28373
C         19.96612        14.47410        -1.89550
C         19.99657        16.97875        -0.72896
C         18.74453        19.47970        -1.20264
C         19.99156        19.10051        -0.70703
C         21.46260         1.95387        -3.82464
C         21.56017         3.42881        -3.95387
C         21.48628         1.48277        -2.40784
C         22.08979         4.26942        -3.02023
C         21.11912         6.61661        -3.95543
C         21.12309         8.03977        -3.37112
C         22.23762         5.74591        -3.28916
C         22.31292         8.66651        -2.89208
C         21.18280        10.95981        -3.02326
C         21.22305        12.37873        -2.56015
C         22.49584        10.17240        -3.10921
C         22.47522        13.00449        -2.07183
C         21.17958        15.10487        -1.67825
C         21.20108        16.45157        -1.13073
C         22.41215        14.32366        -1.66850
C         22.44160        17.19435        -0.89970
C         21.31813        19.51259        -0.99803
C         22.46670        18.67360        -0.81279
C         22.08568         2.39706        -1.38623
C         22.56940         3.69309        -1.77256
C         22.43926         1.90464        -0.13943
C         23.44862         4.40744        -0.95167
C         23.32640         6.42518        -2.52658
C         23.38232         7.90685        -2.42898
C         24.07932         5.64796        -1.47730
C         24.77522         8.44141        -2.12821
C         23.63735        10.80762        -2.30120
C         23.66016        12.15653        -1.95344
C         24.85977         9.97877        -2.13208
C         24.85238        12.76771        -1.38042
C         23.57361        14.99269        -1.04738
C         23.61458        16.47869        -0.97403
C         24.81371        14.17862        -0.90609
C         24.92364        17.15536        -0.93824
C         23.72034        19.29588        -0.63419
C         24.94660        18.58292        -0.54540
C         23.28532         2.64042         0.74098
C         23.83698         3.89018         0.31241
C         23.64932         2.11384         2.00432
C         24.76698         4.59042         1.15026
C         25.06734         6.37121        -0.61180
C         25.36554         7.81415        -0.85370
C         25.37725         5.82170         0.73173
C         26.31391         8.42525        -0.09741
C         26.06069        10.60046        -1.45417
C         25.99134        12.04127        -1.12619
C         26.87401         9.74998        -0.50652
C         27.15367        12.67215        -0.51026
C         26.11149        14.86733        -0.75715
C         26.19415        16.34902        -0.82964
C         27.24391        14.13140        -0.59906
C         27.38159        16.99982        -0.22617
C         26.14872        19.16551        -0.14757
C         27.35259        18.40466         0.05844
C         24.55198         2.78469         2.83178
C         25.12169         4.03436         2.40529
C         24.93977         2.24127         4.10687
C         26.05127         4.71406         3.24561
C         26.29132         6.48347         1.54039
C         27.08455         7.65349         0.98578
C         26.62202         5.95399         2.82979
C         27.61994         8.53815         2.10910
C         27.77435        10.47494         0.44850
C         28.03744        11.92540         0.23092
C         27.83384         9.97696         1.86587
C         28.94070        12.65675         1.17436
C         28.50708        14.93443        -0.71362
C         28.51650        16.22997         0.04020
C         29.96687        13.60402         0.73321
C         29.64732        16.77824         0.72641
C         28.53402        18.98633         0.54676
C         29.66230        18.20352         0.90132
C         25.83932         2.88926         4.90391
C         26.42077         4.14036         4.49970
C         27.35228         4.81317         5.30936
C         27.50986         6.64756         3.70317
C         27.91172         8.01347         3.35491
C         27.87106         6.04706         4.92239
C         28.62483         8.81564         4.33140
C         28.43894        10.85621         2.97284
C         29.02090        12.21490         2.65110
C         28.93568        10.12108         4.14150
C         30.05342        12.87982         3.44835
C         30.41242        14.56124         1.66754
C         30.68487        15.98431         1.34806
C         30.48411        14.12184         3.03201
C         31.76176        16.64067         1.93938
C         30.81070        18.82101         1.48014
C         31.85385        18.04998         1.94857
O         19.46297        12.33954        -0.80105
O         12.79102         5.95094         0.59324
O         25.76091        16.87579        -2.13153
O         29.27124        14.74865        -1.65623
O          8.59229         3.57195        -1.37215
O         11.59563        15.59703         1.33391
O         18.73568        16.39251        -2.74766
O          7.84869        12.45289        -1.18525
O          5.88652        13.17423         2.77832
O          5.10921        16.65899         2.90944
O         23.92088        14.36624         0.26182
O         26.99829        10.79935         2.76054
O         23.53920         5.97599        -3.92839
O         21.17328        12.07277        -3.99761
O         12.80923         8.22552        -2.22296
O         19.97218        18.00689         0.20674
O         14.56888         4.92702        -3.42209
O         28.34986         9.65597        -0.63031
O          5.57981         5.67864        -0.54206
O         12.35180        10.19401         0.89560
O         16.78950         9.77091        -3.76034
O         20.68581         3.98157        -4.90312
O         25.51238         5.50748        -1.72292
O          8.85108        15.66248        -1.04236
O         26.05583        10.38318        -2.89306
O         17.07336        13.84062        -3.14460
O         19.05665         8.57610        -4.66051
O         15.22053        18.24013         0.51727
O          4.66891         5.81208         3.12900
O         28.04329        13.20925         2.20070
O         30.67394        13.37348        -0.39401
H         30.18049        12.80495        -1.02051
O         21.45257         6.74964        -5.34479
H         22.43290         6.82825        -5.39638
O          6.13986         2.80888        -0.95474
H          6.83640         2.82285        -1.65287
O         10.17644        13.08133        -2.11263
H          9.27324        13.43107        -2.29097
O         25.60668         7.94264        -3.19476
H         25.36167         8.41248        -4.01929
O         22.04859         1.17331        -4.84428
H         21.90350         1.62387        -5.70114
O         28.23931         7.06969         0.31779
H         28.62598         7.77319        -0.25629
O         22.96370        10.25503        -4.48126
H         22.61412        11.10049        -4.85118
O          2.87028        13.96601        -0.08010
H          2.00790        13.55475        -0.30417
O         17.17136        10.41719        -0.18453
H         16.66405        10.81484         0.55444
H          1.90561         1.00946         3.41537
H          1.66567         3.47099         3.25871
H          3.99508        -0.11383         2.67253
H          1.34314         5.44572         2.89030
H          1.17653         7.83590         2.57576
H          1.02118         9.77484         2.29933
H          0.92583        12.20185         2.11705
H          0.85473        14.16072         2.10238
H          0.81230        16.59331         2.18063
H          1.96606        18.79545         1.72595
H          6.27869         0.03821         1.84082
H          3.98393        20.09399         1.18756
H          8.53455         0.15099         1.03074
H          6.35779        20.18264         0.45895
H         10.85392         0.17883         0.16147
H          8.71772        20.25808        -0.25705
H         13.08606         0.21700        -0.85818
H         11.28830        20.32474        -0.75591
H         15.56684         0.31085        -1.75300
H         13.54644        20.21164        -1.65406
H         17.98432         0.53774        -2.27888
H         16.38429        20.47600        -1.67369
H         19.91271         0.46007        -3.47680
H         18.66907        20.41629        -1.77632
H         21.80628         0.43736        -2.25683
H         21.49572        20.54131        -1.34960
H         22.10148         0.90406         0.16908
H         23.74486        20.38689        -0.48738
H         23.22456         1.15202         2.32828
H         26.16667        20.23882         0.09623
H         24.50044         1.28455         4.42510
H         28.57277        20.07376         0.71203
H         26.13400         2.46164         5.87343
H         27.65587         4.37032         6.26877
H         28.57489         6.54530         5.60179
H         28.98922         8.32841         5.24528
H         29.57496        10.64179         4.86815
H         30.32778        12.49762         4.43997
H         31.05602        14.75499         3.72806
H         32.55278        16.05179         2.42498
H         30.84042        19.91634         1.57029
H         32.73561        18.52882         2.39696
