         261
 CSIRO Nanostructure Databank - Neutral Graphene Oxide Data Set
C        -11.12679         0.39501        -0.95278
C         -9.87331         1.24505        -0.93976
C         -8.69476         0.51978        -0.25087
C         -7.48570         1.32081         0.06294
C         -6.38193         0.78706         0.94658
C         -5.04894         1.38741         0.56593
C         -3.83509         0.84895         1.26172
C         -2.55926         1.63358         1.23237
C         -1.25829         0.86967         1.13104
C          0.04985         1.61536         1.30808
C          1.32106         0.81034         1.28346
C          2.50560         1.41928         0.56709
C          3.82979         0.69045         0.58572
C          5.12195         1.43459         0.43785
C          6.40433         0.75879         0.87085
C          7.63053         1.43410         0.34558
C          8.91247         0.64217         0.18462
C         10.16271         1.43265        -0.21112
C         11.43974         0.68043        -0.08658
C        -10.05645         2.66904        -0.33395
C         -8.78401         3.49173        -0.48943
C         -7.54292         2.82018        -0.02455
C         -6.25410         3.57251        -0.01424
C         -5.00193         2.73684        -0.08739
C         -3.67354         3.42484        -0.30111
C         -2.45601         2.86401         0.35285
C         -1.24573         3.74722         0.48926
C          0.02909         3.16605         1.15138
C          1.37371         3.75357         0.56955
C          2.50624         2.85601         0.12250
C          3.86253         3.45218        -0.44495
C          5.05839         2.94729         0.35988
C          6.32626         3.72831         0.38493
C          7.60884         2.92743         0.21942
C          8.90642         3.72741         0.14141
C         10.11014         2.89210        -0.22119
C         -8.74114         4.79345        -0.88915
C         -7.52940         5.61632        -0.92174
C         -6.22731         5.08269        -0.30955
C         -5.00206         5.50537        -1.15645
C         -3.70980         4.78889        -0.94206
C         -2.39720         5.53004        -1.11988
C         -1.22032         4.99913        -0.33949
C          0.07321         5.70842        -0.54543
C          1.35757         5.12871        -0.01372
C          2.55806         5.72715        -0.70879
C          3.84815         4.97488        -0.71625
C          5.16075         5.82207        -0.73626
C          6.45003         5.05050        -0.36678
C          7.61874         5.90146         0.07322
C          8.52663         4.99703        -0.72451
C         -7.53516         6.91802        -1.32414
C         -6.27911         7.72243        -1.42686
C         -4.98033         6.99242        -1.44998
C         -3.71567         7.70395        -1.02860
C         -2.40564         7.03075        -1.34380
C         -1.15532         7.99934        -1.35358
C          0.09421         7.14975        -0.91674
C          1.25655         7.89254        -0.18834
C          2.59471         7.26494        -0.75278
C          3.68814         7.78796         0.17618
C          4.99544         7.02893         0.21517
C          6.21191         7.77791         0.71252
C          7.55184         7.21297         0.37395
C         -6.23741         9.17287        -1.09538
C         -5.09965         9.83322        -0.79613
C         -3.77445         9.16799        -0.66584
C         -2.52152         9.93778        -0.55594
C         -1.27111         9.32468        -0.60064
C         -0.06029        10.03549        -0.35072
C          1.21985         9.40987        -0.27902
C          2.41512        10.03924         0.04780
C          3.60212         9.27022         0.49537
C          4.89462         9.91982         0.81213
C          6.05603         9.23810         0.93686
C        -11.22907        -0.84846        -0.45539
C        -10.20469        -1.44590         0.44644
C         -8.91127        -0.71040         0.58714
C         -7.70969        -1.42757         1.19753
C         -6.42609        -0.64312         1.39418
C         -5.14162        -1.41440         1.66778
C         -3.81449        -0.63921         1.58587
C         -2.51377        -1.38734         1.41139
C         -1.29310        -0.61728         0.94101
C          0.00972        -1.35438         0.72504
C          1.23144        -0.74589         1.40443
C          2.57534        -1.45973         1.16641
C          3.87431        -0.73027         1.05283
C          5.17064        -1.43325         0.70405
C          6.43970        -0.72600         1.07142
C          7.74803        -1.51097         0.97701
C          9.03119        -0.75774         0.74090
C         10.30731        -1.56642         0.41461
C         11.47339        -0.65777         0.05722
C        -10.25768        -2.94608         0.78767
C         -8.90166        -3.62486         0.61621
C         -7.72550        -2.93671         1.23433
C         -6.48237        -3.78695         1.59698
C         -5.15144        -2.94202         1.65254
C         -3.81601        -3.69370         1.50726
C         -2.51213        -2.91288         1.38123
C         -1.24234        -3.61974         0.91936
C         -0.03810        -2.82037         0.49506
C          1.25284        -3.58656         0.40097
C          2.55611        -2.83978         0.59218
C          3.82795        -3.59297         0.35067
C          5.16864        -2.90062         0.48557
C          6.41679        -3.71600         0.51009
C          7.72898        -2.99838         0.63492
C          8.86124        -3.59998        -0.13498
C          9.96905        -2.66783        -0.62402
C         -8.78715        -4.82665         0.01949
C         -7.45348        -5.47417        -0.25728
C         -6.39479        -5.10237         0.80034
C         -5.10024        -5.83642         0.68941
C         -3.81447        -5.18503         1.13402
C         -2.52497        -5.88417         0.76693
C         -1.24101        -5.10679         0.66588
C         -0.06710        -5.74940        -0.02025
C          1.25488        -5.06596         0.21141
C          2.49597        -5.87756         0.42911
C          3.81364        -5.10244         0.43059
C          5.09317        -5.80559         0.11548
C          6.27735        -4.94897        -0.40872
C          7.57751        -5.71454        -0.56617
C          8.79171        -4.89507        -0.57463
C         -7.52181        -6.98837        -0.37574
C         -6.37919        -7.71779        -0.43048
C         -5.06610        -6.95001        -0.42384
C         -3.84854        -7.88967        -0.18602
C         -2.55637        -7.25682         0.11861
C         -1.42022        -7.80366        -0.76879
C         -0.06543        -7.14177        -0.53158
C          1.12722        -8.04665        -0.26642
C          2.44293        -7.35303         0.10799
C          3.73338        -8.00192        -0.37564
C          4.94617        -7.11109        -0.61798
C          6.17487        -7.64726        -1.29912
C          7.49103        -6.99306        -1.04154
C         -6.31898        -9.17515        -0.54459
C         -5.18055        -9.85953        -0.80396
C         -3.89206        -9.12879        -1.12353
C         -2.58685        -9.93946        -0.87432
C         -1.40169        -9.32232        -0.68038
C         -0.01718        -9.84628        -0.34316
C          1.18590        -9.29015        -1.11382
C          2.34751        -9.90783        -1.43897
C          3.67381        -9.26226        -1.19175
C          4.89046        -9.67197        -1.94873
C          6.06757        -9.01594        -1.87330
O         -5.55307         7.41087        -2.70405
O         -8.11750        -2.13857         2.39588
O          3.23780         8.18556         1.46456
O         -3.76696         8.08036         0.36847
O         -5.19189        -2.17875         2.89280
O          5.17899        -6.78620        -2.01721
O         -3.06317        -5.95425         2.10942
O         -6.03767        -6.19999         1.70727
O          1.15656         7.56653         1.12399
O          3.40851        -1.16959         2.35557
O          6.39300         0.19296         2.20466
O         -5.03391         1.51410        -0.89022
O          2.04733         1.80963        -0.77406
O         -4.50392         4.66362        -2.19296
O         -0.93742         8.38311        -2.63298
O          7.17756        -3.85821         1.71169
O         -0.04115        -6.03178        -1.46109
O          9.31067         0.69750        -1.19645
O          4.71326        -5.62923         1.47768
O         -1.58741         5.03283         1.08266
O         -0.03453        -1.87781        -0.62528
O         -3.24802        -8.18754         1.05964
O          5.30619        -1.93692        -0.63733
O          8.59653        -1.04651         2.09014
O          3.03489         5.15530        -1.94268
O          0.40463         6.18267        -1.89647
O          0.84655         1.37285         2.52522
O          4.52392         0.75975        -0.69139
O         -1.41296         0.26255        -0.21426
O          3.18282        -2.90209        -0.73525
O         -4.82300        -6.37300        -1.64549
O          1.70590         4.91662         1.37784
O         -6.99002         3.34991         1.22779
O          5.48866         3.64985         1.56366
O         -0.79447        -4.56950         1.94170
O          5.44749         6.85600         1.57235
O         -7.54020         0.48260        -1.14978
O          2.44085        -6.87047         1.48217
O         -9.96466        -0.54892         1.58161
O         -6.03170         5.77211         0.88510
O          5.88304        -4.54418        -1.68009
O         -2.94697        -0.89817         2.71179
O         -2.96244        -3.45698         2.64427
O         -1.73327        -7.52732        -2.11025
O         -2.74227         2.55740        -1.03689
O          7.36593         2.08164        -0.93719
O         -6.62452         0.48653         2.32562
O          0.49388        -8.97862         0.77358
O          4.01187        -9.26318         0.27354
O          7.32755         4.67330        -1.54075
O         -3.38571         1.68122         2.39926
O          1.35432        -4.18289        -0.93168
O         -2.29211         6.10376        -2.43843
O         -4.00192        -8.65748        -2.44754
H         -3.20351        -8.07235        -2.63002
O         10.73791        -2.26750         1.59528
H         10.06906        -2.10631         2.30441
O         -0.09263         3.66419         2.48306
H          0.59570         3.25023         3.04713
O          9.20680         4.28807         1.44623
H          9.48581         3.57280         2.05556
O          0.89786        -1.04399         2.77419
H          1.65167        -0.77760         3.34657
O         -9.54696         1.46143        -2.32831
H         -8.63125         1.12349        -2.47819
O        -10.32520         2.51809         1.05685
H        -10.16202         3.36612         1.51720
O         -6.70214        -4.21899         2.94123
H         -6.71007        -3.41448         3.50858
O          5.33466         6.37349        -2.04161
H          5.74572         5.68576        -2.61030
O          2.83631         7.72210        -2.05916
H          2.88617         6.94040        -2.66002
O          4.09149         2.89526        -1.73948
H          3.31461         3.08214        -2.30857
O         -7.00750        -4.90348        -1.51812
H         -6.23009        -5.44085        -1.85046
O          9.49470        -2.02119        -1.80258
H          9.14535        -2.69004        -2.42663
O        -11.24457        -3.59173        -0.01008
H        -10.96983        -3.55323        -0.94911
H         12.45513        -1.15550         0.07703
H         12.37810         1.23817        -0.22980
H         11.07695         3.40277        -0.07350
H          9.36285         5.42557        -1.32056
H          8.44408         7.85392         0.42068
H          6.97735         9.80284         1.14741
H          4.89826        11.01380         0.93259
H          2.49743        11.13755         0.01604
H         -0.13586        11.09471        -0.04911
H         -2.59479        11.01809        -0.34680
H         -5.13541        10.91639        -0.60326
H         -7.18781         9.72744        -1.12534
H         -8.46867         7.38586        -1.67673
H         -9.67333         5.28179        -1.21932
H        -10.91185         3.18897        -0.85267
H        -11.95615         0.79908        -1.55364
H        -12.15638        -1.42307        -0.60440
H        -10.57316        -3.05458         1.85549
H         -9.68786        -5.31080        -0.38988
H         -8.50780        -7.47584        -0.43429
H         -7.25809        -9.72876        -0.38727
H         -5.20005       -10.95869        -0.85742
H         -2.68509       -11.03543        -0.81258
H          0.00536       -10.92955        -0.08491
H          2.34821       -10.95958        -1.76696
H          4.83949       -10.63193        -2.48489
H          6.95772        -9.43192        -2.36886
H          8.39862        -7.56794        -1.28293
H          9.66638        -5.30976        -1.10413
H         10.89374        -3.27050        -0.84998
