         249
 CSIRO Nanostructure Databank - Neutral Graphene Oxide Data Set
C         30.38518        31.75448         1.39213
C         30.50355        32.98318         1.22522
C         30.39853        36.06308         0.31244
C         30.30728        37.29596         0.17722
C         30.38364        40.38275         0.24088
C         30.32314        41.60509         0.51830
C         32.61393        28.92982         0.50760
C         31.64257        29.51516         0.98807
C         32.79786        31.65125         0.83350
C         31.61801        30.89109         1.58175
C         32.76440        33.03789         0.67513
C         31.57181        33.82820         0.80717
C         32.71495        35.88962         0.05646
C         31.54230        35.19914         0.41979
C         32.71606        37.27814        -0.41535
C         31.38854        38.13010        -0.35651
C         32.70716        40.28254         0.08912
C         31.49385        39.56987        -0.06328
C         32.73367        41.67578         0.48709
C         31.47663        42.40404         0.68676
C         32.78082        44.29490         1.13613
C         31.64627        43.76923         1.00048
C         35.35957        27.24428        -0.26153
C         35.12424        28.68846        -0.33961
C         33.88109        29.45149        -0.01364
C         35.17984        31.55133         0.20285
C         33.96444        30.91863         0.35750
C         35.28593        33.03167         0.48394
C         33.98214        33.73577         0.07554
C         35.27151        35.93491         0.01409
C         34.01047        35.23471         0.48142
C         35.26806        37.34292        -0.15896
C         34.00320        38.05089        -0.44198
C         35.27089        40.21791         0.11127
C         33.99054        39.58654        -0.22139
C         35.31602        41.60649         0.69210
C         33.98810        42.35885         0.68484
C         35.36465        44.43230         1.28912
C         34.06110        43.72709         1.01839
C         35.39132        45.93182         0.99529
C         37.73078        27.20501        -0.82356
C         36.43598        26.64378        -0.28365
C         37.66452        28.71770        -0.49388
C         36.47529        29.36797        -0.25905
C         37.76994        31.52949         0.10604
C         36.45291        30.79401         0.11888
C         37.79678        33.00722        -0.02165
C         36.46951        33.70171        -0.28908
C         37.71237        35.88291        -0.05403
C         36.49564        35.20818        -0.04854
C         37.71333        37.34093         0.12840
C         36.46754        38.08019        -0.09606
C         37.74676        40.24412        -0.13376
C         36.47640        39.52070        -0.04529
C         37.70791        41.73599        -0.42257
C         36.41819        42.43436         0.02466
C         37.77075        44.62539         0.24522
C         36.47046        43.88476         0.36043
C         37.76602        46.10065         0.33126
C         36.45194        46.51475         0.73180
C         39.98718        24.64650         1.02307
C         39.17295        25.34980         0.33362
C         40.22577        27.23490        -0.57419
C         39.00012        26.58741        -0.28908
C         40.20000        28.70458        -0.97254
C         38.94490        29.42521        -0.48459
C         40.27620        31.53686         0.03472
C         38.99334        30.76656        -0.22114
C         40.19982        32.89563        -0.68928
C         38.96837        33.66846        -0.22527
C         40.28468        35.90491        -0.16134
C         38.99335        35.14083        -0.03319
C         40.23619        37.37186        -0.43989
C         39.02747        38.12977         0.00242
C         40.23974        40.32262        -0.39012
C         38.94657        39.58362        -0.25352
C         40.22139        41.71525         0.17531
C         38.93036        42.45451         0.14124
C         40.27641        44.68221         0.22372
C         38.94396        43.94396         0.12389
C         40.18656        46.08513        -0.40414
C         38.91320        46.81217         0.11966
C         40.20215        48.87801        -0.11132
C         39.17734        48.20214         0.12432
C         42.58221        24.61233         1.22743
C         41.32823        24.56359         0.57501
C         42.73067        27.18156        -0.38904
C         41.46813        26.54724        -0.53667
C         42.78536        28.64668        -0.70282
C         41.50272        29.42255        -0.59493
C         42.79976        31.51852        -0.14289
C         41.53025        30.75154        -0.30981
C         42.77860        33.01484        -0.31372
C         41.50503        33.71502        -0.67659
C         42.84194        35.95566        -0.37067
C         41.55035        35.20935        -0.57744
C         42.81883        37.35472        -0.40306
C         41.56184        38.09185        -0.62152
C         42.81171        40.23363         0.00668
C         41.55619        39.59269        -0.48140
C         42.78873        41.71133         0.25966
C         41.51730        42.47992         0.22046
C         42.75398        44.68115        -0.28638
C         41.46030        43.88127        -0.40035
C         42.74783        46.07142        -0.28230
C         41.50852        46.85386        -0.27229
C         42.80705        48.86684        -0.24096
C         41.50522        48.26453        -0.21590
C         43.54201        25.27332         0.71154
C         45.24894        27.06551        -0.12686
C         43.87100        26.49919         0.12664
C         45.24225        28.59623         0.08214
C         44.08750        29.35922        -0.49667
C         45.27590        31.51609        -0.13220
C         44.10622        30.82662        -0.25237
C         45.32563        32.99318        -0.32580
C         44.06123        33.77169        -0.53397
C         45.34046        35.92371        -0.22966
C         44.06927        35.24261        -0.32835
C         45.36162        37.38081        -0.19301
C         44.10233        38.14247        -0.57771
C         45.24444        40.23898         0.41140
C         43.99288        39.55507        -0.01633
C         45.27878        41.74842         0.41251
C         44.04767        42.42572        -0.20702
C         45.32865        44.59016        -0.43109
C         44.03583        43.94902         0.11149
C         45.26607        46.11987        -0.33566
C         44.06376        46.77920        -0.26449
C         43.84996        48.18593        -0.24418
C         47.46572        27.27579         0.78604
C         46.41890        26.58799         0.73152
C         47.78375        28.64717         0.64450
C         46.50482        29.36355         0.36931
C         47.88012        31.51894         0.05343
C         46.57564        30.78871        -0.08197
C         47.82900        33.00406         0.29517
C         46.53371        33.74501         0.13146
C         47.86698        35.90893        -0.22727
C         46.53812        35.21149        -0.05896
C         47.80425        37.36589         0.18246
C         46.55427        38.05468         0.06048
C         47.82325        40.27663         0.32693
C         46.54877        39.50242         0.42645
C         47.85255        41.69665         0.24062
C         46.60174        42.48256         0.43916
C         47.88754        44.57519        -0.32570
C         46.60760        44.02444         0.30895
C         47.65920        45.94830        -0.63909
C         46.59890        46.60523        -0.46561
C         50.25353        28.84191         1.14541
C         48.99156        29.35508         0.75661
C         50.30734        31.49621         0.66207
C         49.09160        30.78843         0.53437
C         50.34186        32.95491         0.30027
C         49.10573        33.75524         0.26480
C         50.30873        35.88428         0.54101
C         49.10451        35.14097         0.23973
C         50.20851        37.34911         0.81303
C         48.98396        38.08985         0.39147
C         50.32845        40.18214         0.01663
C         49.01145        39.51960         0.32679
C         50.31789        41.69815        -0.03114
C         49.08828        42.38907        -0.04327
C         50.36223        44.31914        -0.61098
C         49.04768        43.83958        -0.33861
C         51.34749        29.43990         1.29654
C         52.64803        31.69378         1.15531
C         51.52448        30.82214         1.08403
C         52.69027        32.93720         1.08429
C         51.67164        33.78596         0.46953
C         52.55581        36.07221         1.20031
C         51.52637        35.21135         0.71715
C         52.65978        37.31459         1.17528
C         51.46423        38.16777         1.20436
C         52.55085        40.44369         0.70735
C         51.51249        39.58924         0.85344
C         52.73810        41.64701         0.26807
C         51.61334        42.38633        -0.12124
C         51.46968        43.75974        -0.49465
O         39.84101        35.51199         1.15620
O         45.82631        42.19660         1.66776
O         42.20709        42.25280         1.49374
O         47.41999        31.04007        -1.25501
O         34.05933        38.97001        -1.55613
O         35.92831        43.41986        -0.92389
O         39.42861        41.86757         1.39346
O         46.99572        33.32137         1.47481
O         40.72773        37.66465        -1.76818
O         44.87840        33.35445        -1.67937
O         38.51230        37.78325         1.30571
O         40.96294        40.25867        -1.65212
O         31.89212        37.61110        -1.58369
O         51.24717        33.29224        -0.80611
O         42.75044        32.43335         1.01988
O         50.51712        37.75398         2.20757
O         45.50254        29.08813         1.42318
O         41.56278        34.53901        -1.88268
O         41.45339        25.15528        -0.75905
O         37.85227        41.90228        -1.88730
O         37.19572        31.07275         1.40284
O         36.31939        33.49579        -1.66477
O         34.25295        29.18406        -1.38404
O         45.77615        39.70152         1.66674
O         46.66108        44.57722         1.62656
H         45.97906        44.11635         2.17152
O         43.65390        28.98853        -1.84088
O         50.63354        39.73955        -1.34625
H         51.44082        40.21157        -1.64697
O         37.74663        27.08662        -2.23471
H         38.04368        26.18910        -2.48843
O         45.46959        44.30631        -1.84192
H         46.19330        44.86955        -2.19523
O         41.19733        43.60063        -1.78649
H         40.86830        44.42392        -2.22123
O         40.15572        28.72312        -2.42055
H         40.03433        29.64974        -2.71870
O         33.79159        33.64538        -1.33591
H         34.69415        33.59247        -1.78275
O         31.95006        30.84166         2.94183
H         31.24970        30.36484         3.43238
O         34.01888        35.35714         1.93110
H         34.67153        34.70404         2.28940
O         40.28446        31.81981         1.44702
H         40.33064        30.97943         1.94693
O         40.55609        44.85661         1.62344
H         40.46735        43.98640         2.07141
O         35.76546        44.23139         2.63091
H         35.04850        44.52179         3.23093
O         44.07680        42.13688        -1.61541
H         44.54655        42.85638        -2.09969
O         44.24579        38.33317        -2.02909
H         43.38934        38.65548        -2.38724
O         48.07573        35.96111        -1.69235
H         47.28094        36.37048        -2.09865
O         35.53599        33.19371         1.89938
H         36.22838        32.52671         2.14631
O         39.96970        32.53378        -2.06880
H         40.10893        33.33782        -2.61979
O         36.68755        41.30209        -2.49984
H         36.09469        42.08138        -2.64771
O         44.08660        44.11327         1.54487
H         43.34792        43.58168         1.93623
O         35.73397        41.47033         2.07817
H         35.12022        40.86314         2.54102
O         39.94310        45.92757        -1.82689
H         39.88581        46.82025        -2.23019
O         45.57509        26.83558        -1.48743
H         45.38220        25.90437        -1.72090
