         276
 CSIRO Nanostructure Databank - Neutral Graphene Oxide Data Set
C        -10.92199         0.54389         0.82197
C         -9.72390         1.39019         0.92245
C         -8.38266         0.72706         0.78432
C         -7.34261         1.56524         0.09316
C         -6.23319         0.82936         0.80183
C         -5.01307         1.59729         1.22262
C         -3.82176         0.81855         1.80930
C         -2.49741         1.47511         1.39487
C         -1.22092         0.72882         1.67403
C          0.06517         1.45220         1.49515
C          1.30092         0.74851         0.96315
C          2.62563         1.41141         1.35509
C          3.83328         0.74972         0.90914
C          5.17713         1.47570         1.06094
C          6.11748         0.76327         0.06090
C          7.47963         1.41390        -0.32638
C          8.74715         0.76294         0.20591
C         10.05166         1.41531        -0.22471
C         11.23858         0.67696         0.36804
C         -9.83739         2.74204         0.78072
C         -8.64239         3.67402         0.86319
C         -7.39583         3.02380         0.23711
C         -6.10642         3.74106         0.49601
C         -4.98410         2.95817         1.10943
C         -3.73213         3.72521         1.35285
C         -2.43605         2.96126         1.22306
C         -1.16024         3.79335         1.52806
C          0.09302         2.93566         1.38927
C          1.28815         3.52461         1.61607
C          2.63200         2.91582         1.50538
C          3.82205         3.77052         1.04167
C          5.10194         2.99626         0.78209
C          6.27341         3.57906         0.05557
C          7.46091         2.90404        -0.14737
C          8.73879         3.61346        -0.29291
C          9.95714         2.91851        -0.10456
C         -8.67897         5.02574         0.19709
C         -7.56924         5.94922         0.63241
C         -6.17546         5.23649         0.56470
C         -4.99659         6.06751         1.07778
C         -3.69518         5.20721         1.06851
C         -2.50963         5.59425         0.19841
C         -1.10206         4.94207         0.46027
C         -0.12403         6.18010         0.71293
C          1.27374         5.73168         1.09039
C          2.44773         6.04563         0.47862
C          3.64642         5.12764         0.32974
C          4.87719         5.71282        -0.32614
C          6.17695         4.95828        -0.44162
C          7.47687         5.69892        -0.80095
C          8.71534         5.01677        -0.44902
C         -7.43124         7.26714        -0.09351
C         -6.26425         7.95583        -0.14033
C         -4.89735         7.44037         0.32693
C         -3.97850         7.51358        -0.93021
C         -2.64528         6.76544        -0.74705
C         -1.35941         7.41780        -1.24367
C         -0.08700         7.03305        -0.56383
C          1.13334         7.88940        -0.74035
C          2.43071         7.33628        -0.25324
C          3.70827         7.97915        -0.65625
C          4.97576         7.19845        -0.57042
C          6.21422         7.81204        -1.13163
C          7.40943         7.15899        -1.05500
C         -6.19437         9.28512        -0.73925
C         -5.02172         9.79201        -1.19457
C         -3.80776         8.98800        -1.26977
C         -2.65659         9.52885        -1.73485
C         -1.40551         8.75024        -2.05648
C         -0.15176         9.56362        -1.83651
C          1.16286         8.85446        -1.96667
C          2.44158         9.68101        -1.95673
C          3.62954         9.21476        -1.47377
C          4.91457         9.84304        -1.75056
C          6.09980         9.19236        -1.58175
C        -10.93249        -0.76116         0.46090
C         -9.67920        -1.51899         0.22491
C         -8.43118        -0.71491         0.33638
C         -7.19408        -1.17070        -0.36363
C         -5.90180        -0.46641         0.04347
C         -4.97875        -1.40278         0.78632
C         -3.85169        -0.72720         1.55094
C         -2.55347        -1.50145         1.64897
C         -1.24620        -0.77710         1.58500
C         -0.06432        -1.45643         0.90059
C          1.28572        -0.76221         1.12687
C          2.45135        -1.41616         0.90622
C          3.69296        -0.67015         0.42069
C          4.97318        -1.45336         0.63853
C          6.24489        -0.68693         0.54078
C          7.49623        -1.42849         0.21735
C          8.75357        -0.69264         0.52755
C         10.00940        -1.50691         0.83230
C         11.24521        -0.64629         0.61758
C         -9.60411        -2.79365        -0.54314
C         -8.42488        -3.33017        -0.94317
C         -7.14847        -2.55518        -0.89480
C         -5.77093        -3.23824        -0.93371
C         -4.89716        -2.77017         0.23523
C         -3.77312        -3.60666         0.62781
C         -2.56134        -2.96836         1.28663
C         -1.24641        -3.65186         1.16821
C         -0.07762        -2.95626         1.10325
C          1.26610        -3.65372         1.20373
C          2.40943        -2.88371         0.53022
C          3.74585        -3.61844         0.71370
C          4.99102        -2.90390         0.49676
C          6.28292        -3.67960         0.61529
C          7.50463        -2.90306         0.15858
C          8.80811        -3.63396         0.14095
C          9.97251        -2.92518         0.26321
C         -8.35470        -4.60280        -1.75563
C         -7.08595        -5.40011        -1.51663
C         -5.87639        -4.76216        -1.01517
C         -4.78975        -5.53410        -0.67526
C         -3.57973        -4.90213        -0.10164
C         -2.36254        -5.72078         0.17832
C         -1.31681        -5.18291         1.19255
C         -0.03460        -5.79042         0.66421
C          1.20848        -5.00545         0.50903
C          2.48281        -5.70371         0.10663
C          3.77527        -5.12065         0.56600
C          5.06658        -5.88586         0.25618
C          6.20057        -4.96430        -0.23926
C          7.51121        -5.73997        -0.26221
C          8.70883        -5.06975        -0.12304
C         -7.10490        -6.73760        -1.80133
C         -5.88491        -7.55275        -1.78728
C         -4.67801        -6.94919        -1.09377
C         -3.61639        -7.87064        -0.53317
C         -2.36708        -7.21575        -0.02727
C         -1.27358        -7.92270         0.36898
C          0.06406        -7.29628         0.59487
C          1.00533        -7.60902        -0.60837
C          2.42234        -7.08930        -0.44569
C          3.67264        -7.97599        -0.26539
C          4.90939        -7.12107        -0.67907
C          6.22701        -7.87066        -0.60761
C          7.41300        -7.18015        -0.47229
C         -5.93393        -9.02345        -1.97365
C         -4.83587        -9.77608        -1.78944
C         -3.61962        -9.29529        -1.06645
C         -2.37199       -10.04852        -1.38169
C         -1.20634       -10.00950        -0.68502
C          0.03318       -10.70493        -1.07121
C          1.27837       -10.40333        -0.68795
C          2.55000       -10.24236        -0.37168
C          3.58354        -9.31375        -1.07074
C          4.96301        -9.95746        -1.05360
C          6.13248        -9.30171        -0.84433
O         -8.82278        -1.59509         1.43482
O          7.62548         1.17691        -1.82059
O          1.64131         8.38088         0.49664
O          5.72831        -1.01540         1.85834
O         -0.42760         1.12589         2.84351
O         -3.52100        -3.73254         2.09519
O         -7.27529        -1.37771        -1.80197
O          3.77898        -4.55508         1.88999
O         -5.78271         4.59608        -0.67522
O          8.58716         0.33322         1.57785
O          2.83111         2.06231         2.68415
O         -1.18433        -9.31589         0.54328
O          3.85625         5.01859        -1.12771
O          7.38048        -2.10209        -1.09246
O          4.88654         3.78208         2.02550
O          4.55626         8.04576         0.55362
O         -4.76231        -6.99930        -2.56275
O          2.55018        -5.94938        -1.33756
O         -3.54285         4.70083         2.42715
O         -1.71819        -1.32834         2.84512
O          0.26406        -5.11150        -0.59220
O         -4.01964        -8.98624         0.32487
O         -7.27382         0.58867         1.88526
O         -2.84103         5.39073        -1.21347
O         -2.44001         2.07990         0.06419
O         -4.98528        -1.30649         2.25909
O          6.66597         4.99462        -1.82400
O         -7.45445         2.37401        -1.09105
O          1.30110         4.81845         2.13619
O         -0.47626         6.42798        -1.83436
O          0.61380        -8.08267        -1.65437
O         -2.42977        -4.89664        -1.02331
O          5.68956         1.35102         2.39090
H          5.07454         1.84073         2.98315
O          3.43780        -0.66729        -1.03945
H          2.73161         0.01717        -1.18278
O         -5.09777        -2.82440        -2.14971
H         -5.11423        -1.83692        -2.16591
O         -3.88338         0.96839         3.23898
H         -4.54962         0.32689         3.57446
O          5.36010         0.79068        -1.17034
H          5.74766         0.13586        -1.79175
O          7.08150         2.29376        -2.55818
H          6.10468         2.21192        -2.39683
O          3.73985        -8.36119         1.11263
H          4.33727        -7.73585         1.59864
O         -5.26350         6.42751         2.45399
H         -4.79218         5.76612         3.02382
O          1.53213        -3.80154         2.60668
H          0.79014        -4.28912         3.02253
O          6.50593        -4.01705         2.00962
H          6.30332        -3.21638         2.54358
O         -4.65475         6.93136        -2.05361
H         -4.67688         5.95339        -1.92739
O          5.89743        -4.51020        -1.57874
H          6.54866        -3.81662        -1.83095
O         -8.33060         3.75602         2.26769
H         -8.33094         4.71257         2.53142
O         -1.59752        -5.64243         2.51474
H         -2.40114        -5.16100         2.82751
O         -8.40671        -4.23453        -3.14706
H         -7.61248        -3.69538        -3.34772
O          3.21309        -9.09549        -2.42240
H          2.33397        -8.65022        -2.44952
O          1.25795         0.96575        -0.48989
H          0.50780         0.41572        -0.83816
O         -4.30739         8.38103         1.23532
H         -4.66261         8.18828         2.13349
O         -5.17338        -0.08481        -1.14490
H         -5.79758         0.35592        -1.76338
O         -7.84127         6.29912         2.02412
H         -7.01304         6.66971         2.41878
O         -1.19093         4.33302         2.85153
H         -1.04651         3.60155         3.48952
O         -0.67072         4.22835        -0.68996
H         -1.16260         4.56769        -1.47787
O         -0.29746        -1.26395        -0.53987
H          0.29229        -1.91509        -1.00259
O          5.51114        -6.44174         1.51623
H          5.63234        -5.68010         2.13901
O          0.68413        -7.79163         1.79197
H          0.38182        -8.71903         1.91280
O          2.06732        -2.90411        -0.88014
H          2.69529        -2.29381        -1.34591
O         -0.71790         6.96982         1.75223
H         -0.68296         6.43734         2.57960
O          1.24661         8.05557        -3.14904
H          0.33021         7.89810        -3.48741
O         -1.47248         8.36167        -3.45816
H         -2.25940         7.78835        -3.57870
O          4.72525        -6.80612        -2.05966
H          5.28092        -6.02721        -2.29469
O          9.99558        -1.74058         2.27385
H          9.71788        -0.89421         2.69368
O         10.23972         1.20463        -1.66083
H          9.39729         1.44828        -2.11937
H         12.19589        -1.11266         0.92373
H         12.19703         1.22071         0.37253
H         10.89212         3.49701        -0.17591
H          9.64283         5.59875        -0.34836
H          8.33571         7.67171        -1.35637
H          7.03442         9.70354        -1.85792
H          4.91220        10.86066        -2.16878
H          2.44599        10.58892        -2.58039
H         -0.21033        10.32196        -1.03698
H         -2.65155        10.59612        -2.00666
H         -4.98087        10.81355        -1.60128
H         -7.11935         9.87718        -0.80583
H         -8.34593         7.73922        -0.48509
H         -8.92899         5.02207        -0.87772
H        -10.84209         3.19236         0.75112
H        -11.88466         1.05498         0.97849
H        -11.89240        -1.28737         0.35063
H        -10.53915        -3.35157        -0.70984
H         -9.25023        -5.24271        -1.55587
H         -8.05383        -7.22130        -2.08028
H         -6.84739        -9.45946        -2.40554
H         -4.85932       -10.84573        -2.05025
H         -2.39316       -10.60838        -2.32828
H         -0.08701       -11.50576        -1.82505
H          2.93177       -10.77593         0.51958
H          5.00326       -11.04012        -1.25430
H          7.07388        -9.87520        -0.86626
H          8.36066        -7.74318        -0.50690
H          9.64943        -5.64163        -0.16716
H         10.93419        -3.45824         0.19908
