         204
 CSIRO Nanostructure Databank - Neutral Graphene Oxide Data Set
C        -11.09658         0.70148         0.13326
C         -9.86913         1.46159         0.13113
C         -8.62406         0.74232         0.16473
C         -7.40143         1.47195         0.14115
C         -6.15241         0.76907         0.20754
C         -4.95555         1.50975         0.12069
C         -3.66310         0.84493         0.28646
C         -2.47613         1.53962        -0.21085
C         -1.29454         0.76002        -0.58214
C         -0.04641         1.50733        -0.98212
C          1.23894         0.78311        -0.90206
C          2.40746         1.44929        -0.79034
C          3.64638         0.66586        -0.55185
C          4.89394         1.37974        -0.18228
C          6.17798         0.64611        -0.22330
C          7.37073         1.38244         0.14610
C          8.59460         0.68722         0.25410
C          9.80930         1.39675         0.46742
C         11.05954         0.65193         0.52853
C         -9.87534         2.85841         0.09929
C         -8.66580         3.60995         0.06209
C         -7.41770         2.89554         0.05815
C         -6.20077         3.62572        -0.04299
C         -4.95812         2.91874        -0.07530
C         -3.73646         3.63464        -0.22885
C         -2.49993         2.91792        -0.40180
C         -1.26564         3.64810        -0.59211
C         -0.03392         2.96761        -0.78015
C          1.18898         3.64876        -0.68279
C          2.49379         2.94336        -0.97908
C          3.69807         3.58177        -0.32037
C          4.87294         2.86205        -0.10350
C          6.08267         3.53220         0.26744
C          7.32185         2.79153         0.35553
C          8.55267         3.51263         0.59148
C          9.78684         2.78608         0.58806
C         -8.65626         5.02366         0.02959
C         -7.45118         5.76002        -0.02123
C         -6.20412         5.04850        -0.08356
C         -4.97467         5.76451        -0.14938
C         -3.73670         5.05454        -0.24929
C         -2.50423         5.76832        -0.30696
C         -1.26580         5.05904        -0.44149
C         -0.02823         5.75942        -0.37642
C          1.20152         5.04416        -0.44729
C          2.44872         5.73232        -0.23574
C          3.67026         4.99435        -0.12259
C          4.86725         5.66765         0.27005
C          6.05842         4.92727         0.47769
C          7.25167         5.60858         1.09616
C          8.53599         4.89147         0.81322
C         -7.42085         7.18653        -0.00452
C         -6.21685         7.89553        -0.02978
C         -4.96648         7.18796        -0.10865
C         -3.73369         7.89558        -0.11481
C         -2.49754         7.18707        -0.20238
C         -1.25688         7.89338        -0.15469
C         -0.02438         7.18052        -0.20515
C          1.21255         7.86831        -0.06704
C          2.44123         7.13602        -0.03418
C          3.67528         7.82340         0.21381
C          4.86636         7.09799         0.38704
C          6.12388         7.79363         0.61808
C          7.27716         7.09119         0.85813
C         -6.17064         9.33728         0.02995
C         -4.98523        10.01638         0.04045
C         -3.71676         9.32916        -0.01986
C         -2.49690        10.01100         0.02559
C         -1.25033         9.31977        -0.01838
C         -0.00748         9.99359         0.08292
C          1.21453         9.29514         0.08261
C          2.47385         9.96698         0.22940
C          3.66891         9.26675         0.30314
C          4.94122         9.93988         0.46272
C          6.10390         9.24537         0.58739
C        -11.08822        -0.66221         0.14884
C         -9.85282        -1.40932         0.17874
C         -8.61156        -0.68212         0.20187
C         -7.37936        -1.39979         0.24935
C         -6.13610        -0.67435         0.27522
C         -4.92721        -1.39558         0.27640
C         -3.64993        -0.69651         0.37646
C         -2.42811        -1.42588         0.04469
C         -1.18717        -0.65892        -0.11890
C          0.06624        -1.42140        -0.41080
C          1.19577        -0.69934        -1.05971
C          2.45390        -1.46438        -1.28575
C          3.73822        -0.69077        -1.19159
C          5.05128        -1.39983        -1.16582
C          6.21855        -0.71437        -0.52852
C          7.41815        -1.47485        -0.34411
C          8.57167        -0.81456         0.37618
C          9.90282        -1.48046         0.11927
C         11.10382        -0.69349         0.35255
C         -9.84121        -2.80255         0.17641
C         -8.61903        -3.53944         0.21816
C         -7.37018        -2.82182         0.27346
C         -6.14041        -3.55653         0.33371
C         -4.88449        -2.82787         0.28442
C         -3.65688        -3.50792         0.26576
C         -2.41752        -2.81583         0.02486
C         -1.17456        -3.54952        -0.22744
C          0.02286        -2.89519        -0.49156
C          1.27705        -3.59953        -0.73477
C          2.46165        -2.92563        -1.03250
C          3.73298        -3.64708        -1.28547
C          5.09674        -2.91368        -1.45461
C          6.25027        -3.61235        -0.75529
C          7.44954        -2.85156        -0.54142
C          8.75745        -3.60451        -0.59534
C          9.96113        -2.79637        -0.19760
C         -8.61121        -4.94228         0.19885
C         -7.39789        -5.68730         0.30232
C         -6.14279        -4.96383         0.38038
C         -4.90382        -5.71158         0.46061
C         -3.60257        -4.95055         0.67578
C         -2.37835        -5.66094         0.14964
C         -1.21902        -5.00353        -0.19691
C          0.03973        -5.74002        -0.34406
C          1.27195        -5.04070        -0.53914
C          2.48316        -5.75167        -0.49227
C          3.74956        -5.11400        -0.90403
C          5.01794        -5.75178        -0.48653
C          6.23188        -4.98420        -0.45861
C          7.45184        -5.63776         0.03347
C          8.64878        -4.95670         0.05855
C         -7.40936        -7.08074         0.34810
C         -6.19070        -7.86140         0.73790
C         -4.91165        -7.08411         0.53463
C         -3.64853        -7.85758         0.55125
C         -2.36401        -7.12613         0.32636
C         -1.24057        -7.88688        -0.33485
C          0.05644        -7.13659        -0.21793
C          1.27304        -7.84514        -0.07633
C          2.50161        -7.13397        -0.17326
C          3.74418        -7.81158         0.03359
C          4.98401        -7.07695        -0.03168
C          6.20495        -7.73500         0.38778
C          7.38667        -7.01749         0.43679
C         -6.12390        -9.25162         0.15360
C         -4.96079        -9.92376         0.00162
C         -3.66473        -9.30884         0.22162
C         -2.48182       -10.00240         0.12467
C         -1.19485        -9.33192         0.10579
C          0.00874        -9.96213         0.28868
C          1.27406        -9.25614         0.20091
C          2.49617        -9.89045         0.43490
C          3.72780        -9.18303         0.38168
C          4.97528        -9.83125         0.70979
C          6.14766        -9.13477         0.74063
O          8.28379        -1.05873         1.80717
H          8.98130        -0.60130         2.32363
O          1.55828        -1.11224        -2.41348
O         -2.72650        -7.54686         1.68506
O         -6.31122        -8.06825         2.20143
H         -6.28401        -7.18166         2.62134
O         -3.49563         0.15986         1.57360
O          5.46821        -3.03809        -2.84958
H          4.96751        -2.34688        -3.34181
O         -1.58761        -7.89557        -1.76023
H         -0.83307        -8.28594        -2.24967
O          2.73661         3.12581        -2.41891
H          1.98228         2.72740        -2.90401
O          8.97010        -3.90325        -2.02621
H          8.11635        -4.22956        -2.38656
O         -3.43037        -4.92984         2.13893
H         -3.19106        -5.85540         2.39908
O         -0.18397        -0.87923         0.93902
O         -0.94653         0.97334        -2.00688
O          4.01370         0.72625         0.86590
O          7.06624         5.45983         2.57502
H          6.96857         4.49915         2.75269
O          4.58192        -0.68324        -2.37906
O          3.63599        -4.68716        -2.31278
H         12.07198        -1.21697         0.34345
H         11.98887         1.21931         0.68449
H         10.72713         3.33587         0.74238
H          9.48442         5.41557         1.00718
H          8.22176         7.62959         1.03121
H          7.05717         9.77962         0.71505
H          4.94871        11.03993         0.48343
H          2.48203        11.06489         0.30681
H         -0.00010        11.08878         0.19156
H         -2.49424        11.10812         0.11406
H         -4.98155        11.11506         0.09926
H         -7.12115         9.88911         0.08027
H         -8.37157         7.73846         0.05098
H         -9.61444         5.56466         0.05425
H        -10.83703         3.39356         0.08948
H        -12.05059         1.24887         0.11245
H        -12.03547        -1.22154         0.14063
H        -10.79282        -3.35423         0.14381
H         -9.56542        -5.48748         0.14497
H         -8.37375        -7.61087         0.31483
H         -7.07772        -9.75866        -0.05780
H         -4.97394       -10.96559        -0.35521
H         -2.50512       -11.09793         0.01040
H          0.03205       -11.03162         0.55009
H          2.51031       -10.96124         0.68866
H          4.95778       -10.89878         0.97422
H          7.08293        -9.63677         1.02914
H          8.31417        -7.51127         0.76347
H          9.56802        -5.47815         0.36599
H         10.94181        -3.28420        -0.31848
