         270
 CSIRO Nanostructure Databank - Neutral Graphene Oxide Data Set
C         -9.72718         0.94285         1.78634
C         -9.41773         1.54709         0.48987
C         -8.83080         0.77945        -0.72283
C         -7.52399         1.44242        -1.04508
C         -6.32047         0.73161        -0.95263
C         -5.08180         1.48765        -0.77393
C         -3.77830         0.76754        -0.85303
C         -2.52656         1.48607        -0.38112
C         -1.24875         0.73693        -0.16917
C         -0.24922         1.37442         0.80918
C          1.13792         0.68993         0.80258
C          2.40861         1.45398         0.59963
C          3.69718         0.73847         0.41268
C          4.88161         1.41959         0.47872
C          6.15089         0.78943         0.02907
C          7.47777         1.57035         0.05827
C          8.69588         0.73608         0.46965
C          9.98907         1.47502         0.52987
C         11.22199         0.69121         0.22816
C         -9.49083         2.90032         0.35980
C         -8.94545         3.56977        -0.88885
C         -7.57315         2.90543        -1.13428
C         -6.31464         3.65204        -0.73147
C         -5.10990         2.83453        -0.49432
C         -3.86898         3.57962        -0.14703
C         -2.70371         2.78340         0.41417
C         -1.38564         3.55986         0.49141
C         -0.20906         2.88159         0.61960
C          1.09957         3.57348         0.78382
C          2.37851         2.81617         0.55459
C          3.69309         3.54747         0.27496
C          4.90824         2.87579         0.98522
C          6.18247         3.63581         0.59312
C          7.45546         2.87668         0.89908
C          8.74444         3.63116         0.56146
C          9.90411         2.95672         0.38016
C         -8.84087         5.07003        -0.86757
C         -7.67434         5.77271        -0.55616
C         -6.59238         4.91501         0.10138
C         -5.28987         5.76431         0.46135
C         -3.97701         5.01498         0.23292
C         -2.77542         5.72915         0.82513
C         -1.43244         5.03752         0.74914
C         -0.16912         5.84009         0.52175
C          1.11612         5.07519         0.68497
C          2.36281         5.64223        -0.00646
C          3.61607         5.02993         0.68564
C          4.91790         5.75289         0.36531
C          6.17546         4.95978         0.28298
C          7.39798         5.73815         0.04665
C          8.71846         5.14587         0.51427
C         -7.61942         7.16252        -0.67173
C         -6.42825         7.98504        -0.26905
C         -5.18790         7.10877        -0.22648
C         -3.87318         7.88673        -0.02002
C         -2.93246         7.20175         0.84716
C         -1.29928         7.84645        -0.88664
C         -0.14040         7.16854        -0.17036
C          1.13850         7.75800        -0.77819
C          2.39737         7.13472        -0.22159
C          3.57107         7.80413        -0.38991
C          4.88392         7.14457        -0.14715
C          6.06938         7.65056        -0.94299
C          7.35055         6.99561        -0.46839
C         -6.15440         9.20281        -1.12549
C         -4.97762         9.84473        -1.06135
C         -3.90107         9.41958        -0.07343
C         -2.52933        10.00889        -0.35035
C         -1.37915         9.32292        -0.60417
C         -0.06924         9.96788        -0.65380
C          1.12188         9.27650        -0.69320
C          2.40371         9.93506        -0.76911
C          3.58977         9.22831        -0.71216
C          4.89552         9.86268        -0.85496
C          6.05592         9.16607        -0.91969
C         -9.68162        -0.35386         2.20715
C         -9.46198        -1.50348         1.34617
C         -8.68324        -0.67585        -0.47962
C         -7.52143        -1.42796        -0.66989
C         -6.31934        -0.71973        -0.91143
C         -5.07301        -1.52556        -1.25476
C         -3.76946        -0.73049        -1.04038
C         -2.50710        -1.49817        -0.71055
C         -1.24611        -0.76059        -0.32263
C         -0.09327        -1.52228         0.24016
C          1.15385        -0.78236         0.56022
C          2.47514        -1.48614         0.42238
C          3.64980        -0.69946        -0.10348
C          4.93347        -1.50432         0.03629
C          6.17361        -0.70815        -0.12698
C          7.46279        -1.44731        -0.01819
C          8.73234        -0.73313         0.18167
C          9.94718        -1.36814        -0.49035
C         11.20993        -0.59812        -0.15881
C         -8.79851        -2.66466         1.55645
C         -8.64564        -3.59039         0.36168
C         -7.70417        -2.95549        -0.80306
C         -6.32762        -3.71154        -1.03723
C         -5.11082        -2.89843        -0.52387
C         -3.77706        -3.64353        -0.53771
C         -2.61037        -2.94985        -0.39186
C         -1.36610        -3.63203         0.06440
C         -0.08791        -2.88107         0.16225
C          1.19675        -3.59088        -0.22726
C          2.48395        -2.96431         0.28455
C          3.78819        -3.75658         0.13675
C          4.99630        -2.86050        -0.05797
C          6.31924        -3.61249         0.00916
C          7.51311        -2.83854        -0.67588
C          8.80888        -3.57933        -0.32885
C          9.96164        -2.86537        -0.21824
C         -8.28004        -4.99413         0.77744
C         -7.38009        -5.80284         0.15805
C         -6.38118        -5.23050        -0.79891
C         -5.03085        -5.93238        -0.71933
C         -3.73550        -5.13496        -0.61275
C         -2.53382        -5.89290        -0.21986
C         -1.33452        -5.12983         0.19942
C         -0.01015        -5.85877         0.16365
C          1.24883        -5.09434        -0.03453
C          2.45631        -5.78617        -0.63193
C          3.72994        -5.01773        -0.73191
C          5.04518        -5.71405        -0.95550
C          6.30901        -4.99373        -0.62250
C          7.57604        -5.74418        -0.37974
C          8.73275        -5.03969        -0.22270
C         -7.32932        -7.22544         0.41327
C         -6.20950        -7.98959         0.13003
C         -4.99179        -7.34145        -0.29841
C         -3.77384        -8.01527        -0.23422
C         -2.53923        -7.27263        -0.22341
C         -1.27402        -8.02280         0.16681
C         -0.05986        -7.26919        -0.34763
C          1.17524        -7.96274        -0.79093
C          2.51493        -7.29447        -0.45789
C          3.73068        -7.93378        -1.12815
C          5.11650        -7.23899        -1.16871
C          6.09243        -7.84985        -0.12775
C          7.53035        -7.26832        -0.28075
C         -6.16266        -9.41620         0.36066
C         -4.99628       -10.11489         0.25217
C         -3.73654        -9.45247         0.00341
C         -2.54348       -10.15721        -0.03725
C         -1.27213        -9.49216        -0.20146
C         -0.10296       -10.16170        -0.44154
C          1.17799        -9.51118        -0.93890
C          2.47545       -10.01089        -0.36962
C          3.70249        -9.48178        -0.90110
C          5.03198       -10.08912        -0.62138
C          6.10909        -9.36412        -0.27845
O         -6.24754        -4.00301        -2.48544
H         -7.84765        -3.35240        -2.73220
O          1.17878        -0.22204         1.94627
O         -5.39525         6.06422         1.86135
H         -6.11326         5.41131         2.17293
O         -0.14575         7.11340         1.27548
O          2.21546         5.11505        -1.36920
H          1.97189         5.85660        -1.98200
O         -7.15292         4.46477         1.29661
O          3.51305        -8.80121        -2.21274
O          1.12965         7.41454        -2.20128
H          0.24502         7.62130        -2.58001
O         -1.81115         7.31468        -1.86215
O          4.80826         2.90998         2.37440
O         -3.58007         0.16785        -2.17385
O          9.29867         1.01724         1.75740
O         -6.76714         3.60121        -2.12253
O         -9.74651         0.84212        -1.84633
H        -10.55419         0.34655        -1.59236
O          2.72298        -7.55089         0.94965
H          2.09717        -6.98158         1.46952
O         -6.63449         8.44971         1.10977
H         -6.56216         7.65007         1.69038
O          8.08846        -1.47613         1.29873
O          7.38311        -2.68233        -2.03373
O          6.65834        -3.80658         1.38787
H          7.06056        -2.98478         1.75338
O         -8.47210        -3.08784        -2.00820
O          0.88633        -5.59007         1.28815
O          2.56980        -2.34158         1.60468
O         -4.28157         9.90020         1.23303
H         -5.21989         9.61496         1.39146
O         -1.58812        -4.31392         1.38044
O          5.67327        -7.48956        -2.46545
H          5.75793        -6.61614        -2.92180
O         -3.62102         4.63170        -1.13049
O         -1.46183        -1.22603        -1.69582
O         -2.10798         5.28729         2.03909
O         -4.22443         7.21414        -1.26651
O          5.14025         6.91511         1.26151
O         -1.46047         1.51783        -1.37278
O         -4.23981        -5.63672        -1.90358
O          1.16109         4.43780         1.97825
O         -9.85115        -1.24690        -0.01978
O          0.31270        -7.33745        -1.77922
O          5.80353        -5.01256        -1.99778
O          6.02970         0.15433        -1.31131
O          8.16037        -7.86846        -1.41461
H          7.52570        -7.80188        -2.16844
O          2.87126        -5.19614        -1.90316
O         -5.37040        -2.59766         0.87570
H         -4.93577        -3.27004         1.44201
O         -0.82343         1.17870         2.12921
H         -0.20601         0.57842         2.62677
O          3.99881        -4.39929         1.42655
H          3.86833        -3.71261         2.12102
O         -9.81488         3.28610        -2.00449
H         -9.29589         3.40128        -2.82772
O          9.72726        -1.20393        -1.92192
H          8.93582        -1.76081        -2.18008
O         -1.19323        -8.00449         1.57693
O          1.18496        -9.78683        -2.36110
H          0.67938        -9.06466        -2.79930
O         -6.78970        -5.36855        -2.23926
O          3.38915        -0.59877        -1.53200
H          4.20851        -0.22613        -1.94093
O          1.14154        -3.30995        -1.65204
H          1.79879        -3.87080        -2.13677
O         -3.14440         2.44104         1.74440
H         -2.37754         2.04121         2.23009
O          3.44431         5.12674         2.09624
H          3.97433         4.38884         2.51939
O          5.57122        -7.49926         1.16351
H          6.16430        -7.84729         1.86042
O          4.04135         3.38449        -1.10765
H          3.35360         3.82061        -1.66537
O          7.73062         2.01850        -1.29401
H          7.36712         1.33820        -1.90795
O         -9.96814        -3.76734        -0.18143
H         -9.87918        -3.74714        -1.16593
O          9.80269         5.65360        -0.26744
H          9.74358         5.25575        -1.16023
O          5.82799         7.24743        -2.32651
H          6.63277         7.45222        -2.84659
O         -2.46980         7.83645         1.88189
H         -1.93555         7.20407         2.43465
O         -5.15872        -1.80280        -2.66240
H         -4.73774        -1.04805        -3.13683
O          7.42101         2.59305         2.30092
H          6.47252         2.65797         2.62085
H         12.16786        -1.10956        -0.34406
H         12.18943         1.19779         0.37722
H         10.82728         3.51328         0.15172
H          8.88079         5.51746         1.56515
H          8.29665         7.54276        -0.61257
H          7.00829         9.70847        -1.03267
H          4.91598        10.96219        -0.91706
H          2.42220        11.02968        -0.88325
H         -0.04962        11.06897        -0.63580
H         -2.45371        11.09418        -0.17421
H         -4.79540        10.73443        -1.68201
H         -6.93971         9.54780        -1.81462
H         -8.54684         7.70813        -0.90764
H         -9.66201         5.61106        -1.36582
H         -9.85914         3.52147         1.18938
H         -9.94058         1.69225         2.56669
H         -9.81969        -0.54882         3.28158
H         -8.42020        -2.94082         2.54992
H         -8.98199        -5.45040         1.49321
H         -8.20470        -7.69600         0.88426
H         -7.09840        -9.93370         0.61716
H         -4.98897       -11.20254         0.41688
H         -2.56444       -11.25652         0.03366
H         -0.15179       -11.25177        -0.60076
H          2.49837       -10.69096         0.49487
H          5.10611       -11.18664        -0.68040
H          7.06208        -9.88081        -0.08402
H          8.12144        -7.58163         0.62345
H          9.67090        -5.58386        -0.02565
H         10.92271        -3.37173        -0.03098
