         334
 CSIRO Nanostructure Databank - Neutral Graphene Oxide Data Set
C         30.37126        57.20209        -0.58019
C         30.37366        58.58868        -0.71900
C         29.18205        59.33631        -0.83995
C         30.38844        61.44942        -0.64671
C         29.20386        60.73861        -0.82695
C         32.76051        52.88417        -0.20239
C         32.78222        54.31454        -0.05634
C         31.57474        55.07831        -0.26552
C         32.78622        57.22869        -0.01884
C         31.57098        56.46741        -0.31852
C         32.82447        58.58043        -0.18007
C         31.69721        59.30914        -0.86648
C         32.81599        61.48397        -0.31130
C         31.64240        60.78774        -0.54386
C         35.28862        48.61292         0.13562
C         35.19679        49.95597        -0.14635
C         33.95784        50.68768        -0.21270
C         35.20419        52.78648         0.14031
C         33.92272        52.09601        -0.15252
C         35.22501        54.27029         0.37416
C         33.96731        55.00556         0.23506
C         35.26903        57.13539        -0.06297
C         33.99858        56.49086         0.52188
C         35.31407        58.63062         0.16726
C         34.00756        59.36812         0.32683
C         35.27521        61.47786        -0.17467
C         34.07965        60.81279        -0.13286
C         37.68221        44.26837        -0.59710
C         37.73260        45.73661        -0.23033
C         36.58179        46.42291         0.00941
C         37.82434        48.55824        -0.17726
C         36.59479        47.88407         0.39499
C         37.74423        49.98587        -0.53663
C         36.43959        50.69307        -0.52473
C         37.71893        52.73896         0.26609
C         36.46663        52.21862        -0.47056
C         37.70675        54.25646         0.29596
C         36.53699        54.97484         0.28450
C         37.74898        57.11930         0.41006
C         36.55006        56.42098         0.28760
C         37.73555        58.59738         0.55115
C         36.48210        59.31229         0.22982
C         37.78616        61.48765         0.37904
C         36.59862        60.75717        -0.21366
C         40.21114        40.05719        -0.08306
C         40.21112        41.40360        -0.34193
C         38.99650        42.17330        -0.39059
C         40.26078        44.27832        -0.40892
C         39.00363        43.54269        -0.46430
C         40.22655        45.72814        -0.34937
C         39.01832        46.42131        -0.27472
C         40.22451        48.51771        -0.97124
C         38.98993        47.87289        -0.36888
C         40.24847        50.04744        -0.90481
C         38.99360        50.78623        -0.58193
C         40.20910        52.92719        -0.69792
C         38.96828        52.12583        -0.35981
C         40.17022        54.38788        -0.23753
C         39.01794        54.92747         0.59765
C         40.20608        57.14365         0.59902
C         38.99186        56.43603         0.54678
C         40.25161        58.57862         0.53677
C         39.01101        59.37511         0.70053
C         40.08802        61.73752         1.29568
C         38.96145        60.88548         0.66637
C         42.69440        35.80658         0.29890
C         42.66523        37.19409         0.33256
C         41.44135        37.93123         0.16373
C         42.69752        40.04416         0.07322
C         41.43712        39.30587         0.04820
C         42.72048        41.39439        -0.17435
C         41.49649        42.10719        -0.69646
C         42.72140        44.28055        -0.15432
C         41.46942        43.59040        -0.38816
C         42.70285        45.73946        -0.11732
C         41.49034        46.45660        -0.30780
C         42.70747        48.58846        -0.26415
C         41.49622        47.86652        -0.43569
C         42.75730        50.03904        -0.30008
C         41.52556        50.78111        -0.63459
C         42.73640        52.96916        -0.22758
C         41.43258        52.20010        -0.08394
C         42.73211        54.33899        -0.19095
C         41.46511        55.08776        -0.05071
C         42.67786        57.11027         0.69884
C         41.47277        56.45091         0.53509
C         42.72426        58.55049         0.66074
C         41.47759        59.17330         0.31108
C         42.69812        61.49424         1.47296
C         41.48808        61.29746         0.90013
C         45.19186        33.00384         0.03424
C         43.97315        33.68336         0.06521
C         45.15033        35.75627         0.56408
C         43.93669        35.07286         0.32630
C         45.10910        37.19268         1.00317
C         43.89631        37.93897         0.50838
C         45.16885        40.05548         0.53864
C         43.92239        39.31312         0.37732
C         45.19708        41.42748         0.34840
C         44.02760        42.12912        -0.30568
C         45.12863        44.30718         0.55733
C         43.91008        43.59517         0.02401
C         45.19143        45.75241         0.13979
C         43.92625        46.45181        -0.04144
C         45.17292        48.56898         0.17003
C         43.90576        47.85842        -0.07551
C         45.17178        50.06027         0.21047
C         43.92043        50.77508        -0.08915
C         45.21197        52.90880        -0.09032
C         43.97491        52.21518        -0.18278
C         45.24377        54.32875         0.00168
C         43.99573        55.15923        -0.17981
C         45.18456        57.05779         1.02742
C         43.90412        56.24791         0.91108
C         45.16832        58.57478         1.09795
C         43.89071        59.30528         0.89560
C         45.14020        61.40580         1.07390
C         43.92004        60.74628         1.07332
C         46.39127        33.68470         0.24025
C         47.62068        35.80567         0.65138
C         46.38711        35.07469         0.50856
C         47.65245        37.19186         0.74879
C         46.40209        37.93987         0.79025
C         47.67769        40.05922         1.06240
C         46.39880        39.31304         0.76778
C         47.67970        41.48564         0.59395
C         46.44213        42.17029         0.44019
C         47.65797        44.28744         0.31453
C         46.43104        43.57191         0.34055
C         47.66469        45.71544         0.21909
C         46.40178        46.40654         0.08082
C         47.68927        48.58800         0.11116
C         46.42836        47.86692        -0.28776
C         47.66315        50.01582         0.14801
C         46.45517        50.76749         0.07372
C         47.71092        52.85763         0.13928
C         46.46697        52.16589         0.01065
C         47.76375        54.36002        -0.00012
C         46.43609        55.03651         0.25447
C         47.66316        57.13761         0.75376
C         46.44080        56.39011         0.65648
C         47.65086        58.58545         0.84889
C         46.44206        59.29141         0.91592
C         47.60643        61.44626         0.86530
C         46.41871        60.74259         0.91143
C         48.89033        37.91362         0.66568
C         50.14029        40.03376         0.56042
C         48.93516        39.30329         0.69876
C         50.16068        41.44371         0.53098
C         48.89614        42.16917         0.50040
C         50.13060        44.31265         0.36070
C         48.90082        43.58692         0.34757
C         50.11923        45.71779         0.34935
C         48.89001        46.42231         0.24616
C         50.13812        48.59875         0.21586
C         48.89191        47.88440         0.22039
C         50.11128        49.99967         0.18671
C         48.89044        50.72147         0.24938
C         50.16301        52.80569         0.80660
C         48.89038        52.14624         0.31543
C         50.16553        54.29356         0.65588
C         48.85086        54.96942         0.89265
C         50.12740        57.15182         0.64034
C         48.88805        56.45968         0.71769
C         50.11421        58.60344         0.65493
C         48.90958        59.28542         0.80910
C         50.12965        61.45266         0.51331
C         48.92948        60.76586         1.09796
C         51.36738        42.17467         0.44292
C         52.61180        44.30120         0.29606
C         51.39268        43.58364         0.38854
C         52.66099        45.71064         0.30472
C         51.39895        46.45903         0.67825
C         52.61002        48.55079         0.05163
C         51.40688        47.89741         0.23031
C         52.65049        49.99278        -0.24544
C         51.33404        50.76036        -0.09284
C         52.60126        52.86555         0.17888
C         51.39913        52.16496         0.25481
C         52.59738        54.28651         0.35149
C         51.34788        55.00033         0.51630
C         52.63719        57.17504         0.68783
C         51.33393        56.44304         0.55690
C         52.56273        58.62573         0.28240
C         51.36256        59.31474         0.43935
C         52.54290        61.44803         0.02747
C         51.32190        60.76620         0.30013
C         53.85683        46.42440         0.15749
C         55.08297        48.58165         0.00966
C         53.88916        47.85358         0.10620
C         55.13399        50.01905        -0.04424
C         53.88935        50.75377        -0.06959
C         55.08731        52.89774         0.00023
C         53.85901        52.15102        -0.00570
C         55.05916        54.29683         0.00394
C         53.80675        55.01765         0.15336
C         54.91952        57.12003        -0.56378
C         53.78966        56.41078         0.11012
C         54.98112        58.60802        -0.27780
C         53.78555        59.31206        -0.02972
C         54.98903        61.44610        -0.28621
C         53.76848        60.75984        -0.09643
C         56.33082        50.73871        -0.10542
C         57.54604        52.88841        -0.13500
C         56.35660        52.17821        -0.09826
C         57.58475        54.36119         0.19019
C         56.27919        55.06092        -0.11012
C         57.41843        57.12180        -0.95891
C         56.23636        56.40485        -0.37973
C         57.43228        58.60714        -0.68019
C         56.20594        59.30403        -0.47323
C         57.43279        61.44283        -0.59441
C         56.20983        60.75048        -0.43118
C         58.78866        55.11157        -0.31373
C         59.92469        57.18999        -0.92953
C         58.74041        56.42952        -0.69728
C         59.88994        58.59670        -0.98898
C         58.63718        59.30978        -0.81713
C         59.87723        61.44008        -0.94094
C         58.64338        60.74970        -0.77701
C         61.08281        59.34422        -1.15470
C         61.06568        60.74180        -1.13489
O         41.48353        60.46348        -0.23806
O         45.22093        57.72891         2.33700
O         38.25844        58.94860         1.90642
O         57.13152        56.99406        -2.36557
O         45.18487        49.24118         1.46357
O         36.96069        50.19256        -1.80724
O         40.62869        55.25177        -1.31428
O         41.05371        50.59082        -2.00802
O         51.88822        50.41965        -1.41935
O         35.25863        53.28184         1.49746
O         39.34332        54.53680         1.98114
H         38.70513        54.99143         2.57227
O         44.94281        44.33028         2.02592
H         45.70239        44.81846         2.40994
O         33.79739        59.45654         1.77860
H         34.66151        59.65216         2.19918
O         39.90424        63.11765         0.96690
H         40.04657        63.22430         0.00372
O         44.10625        55.87627        -1.44392
H         43.92859        55.24539        -2.17230
O         44.35273        42.10395        -1.76583
H         44.53193        41.16786        -2.00276
O         37.23617        44.15475        -1.96530
H         37.89408        44.60495        -2.53485
O         46.37343        47.94138        -1.75273
H         47.14099        47.44492        -2.10746
O         36.92697        60.64130        -1.65115
H         36.10128        60.40307        -2.12497
O         40.19147        48.16103        -2.38269
H         40.67892        48.87331        -2.85890
O         41.60506        42.03616        -2.16629
H         42.53301        42.29905        -2.38582
O         48.44252        54.68619         2.27885
H         48.87523        55.34684         2.86015
O         37.69001        52.24592         1.62621
H         38.42922        52.69031         2.10362
O         36.50732        52.72364        -1.81941
H         36.90508        52.00954        -2.37568
O         54.57559        57.01787        -1.98570
H         55.47417        57.01955        -2.45961
O         43.73261        55.54536         2.16256
H         44.00616        56.16541         2.87566
O         44.95018        37.14113         2.47631
H         44.82309        38.06431         2.78434
O         52.93500        57.20905         2.15027
H         52.27320        57.80506         2.56344
O         32.01855        59.25937        -2.30447
H         32.04924        58.31281        -2.56166
O         34.08450        56.62690         1.96016
H         33.25194        56.29154         2.35230
O         35.11085        56.98946        -1.51332
H         35.95402        57.24832        -1.94185
O         48.14710        54.65192        -1.37096
H         47.44203        54.31862        -1.96397
O         57.73989        54.39628         1.66833
H         56.97303        53.91669         2.04923
O         49.11195        60.86854         2.58185
H         48.33218        60.43376         2.99085
O         36.74350        47.91823         1.86480
H         37.51626        47.35947         2.09427
O         50.17336        52.55360         2.26316
H         49.41931        53.08114         2.62847
O         51.41751        46.52426         2.15318
H         51.45568        45.60100         2.48302
O         41.16558        52.09109         1.33836
H         42.00158        51.86197         1.79658
O         40.31647        52.92775        -2.12847
H         40.55335        53.84577        -2.40422
O         47.70962        40.15922         2.53941
H         47.78170        39.24362         2.88567
H         29.41641        56.65487        -0.61954
H         28.21789        58.80754        -0.87624
H         30.35491        62.54299        -0.53077
H         28.25371        61.28739        -0.89462
H         31.79112        52.40076        -0.39752
H         30.64136        54.53279        -0.47053
H         32.79367        62.58527        -0.27466
H         34.36789        48.05644         0.37474
H         33.01056        50.12599        -0.22221
H         35.28142        62.54921        -0.43549
H         36.90834        43.74956         0.02611
H         35.61977        45.88721         0.01765
H         37.71707        62.58414         0.46911
H         39.25704        39.52852         0.06851
H         38.03565        41.63752        -0.34168
H         39.98884        61.65902         2.41199
H         41.75760        35.24888         0.14981
H         40.49437        37.37427         0.10210
H         42.80416        62.20418         2.30739
H         45.20721        31.92328        -0.16662
H         43.03381        33.14146        -0.11585
H         45.15445        62.49347         1.23987
H         47.34839        33.14552         0.19447
H         48.56845        35.24975         0.58598
H         47.58466        62.54654         0.90300
H         49.82032        37.34359         0.51447
H         51.08702        39.48265         0.44782
H         50.11677        62.55088         0.43701
H         52.32178        41.62623         0.43895
H         53.54987        43.73456         0.18759
H         52.53671        62.54681        -0.03515
H         54.80076        45.86994         0.03687
H         56.03674        48.03179         0.01008
H         54.98910        62.54594        -0.32179
H         57.28901        50.19765        -0.13174
H         58.50116        52.34280        -0.18696
H         57.43474        62.54316        -0.58293
H         59.77154        54.63850        -0.14601
H         60.89552        56.67412        -1.00715
H         59.88292        62.53957        -0.91483
H         62.03488        58.81056        -1.29021
H         62.00619        61.29575        -1.26439
