         324
 CSIRO Nanostructure Databank - Neutral Graphene Oxide Data Set
C          1.25671         2.03256         0.00069
C          1.13956         3.26770         0.59111
C          2.51583         1.42309        -0.22306
C          2.32626         4.05373         0.92654
C          1.08328         6.33380         0.34188
C          1.10317         7.68515         0.18115
C          2.28895         5.57850         0.74280
C          2.28466         8.49920         0.37390
C          1.11043        10.65861         0.03796
C          1.15775        12.01875        -0.05062
C          2.27930         9.89081         0.35525
C          2.37209        12.77494         0.15150
C          1.25960        14.87424        -0.66080
C          1.31397        16.21724        -0.96426
C          2.38999        14.18799        -0.13413
C          2.48930        16.97644        -0.71647
C          2.58040        18.34266        -1.19741
C          3.71020         2.01162         0.21001
C          3.67217         3.31648         0.98938
C          4.94653         1.36612         0.05333
C          4.88718         4.16582         0.67087
C          3.58007         6.25963         0.44771
C          3.58043         7.78594         0.38155
C          4.86481         5.55003         0.63914
C          4.83836         8.47184         0.68108
C          3.47386        10.64688         0.82164
C          3.53323        12.11788         0.60150
C          4.77708         9.88812         1.09424
C          4.75603        12.84946         0.79305
C          3.58363        14.92849         0.10794
C          3.60032        16.33875        -0.13649
C          4.74665        14.25292         0.59329
C          4.78508        17.14444         0.20524
C          3.71634        19.07798        -1.10374
C          4.85965        18.59899        -0.31397
C          6.18964         2.00193         0.31971
C          6.18113         3.44711         0.63734
C          7.41269         1.36807         0.13177
C          7.42886         4.22145         0.28533
C          6.05454         6.33759         0.46598
C          6.03480         7.74483         0.53740
C          7.27520         5.66517        -0.03120
C          7.34515         8.44482         0.57933
C          6.07296        10.67742         1.36290
C          6.02435        12.14931         0.95014
C          7.33362         9.90291         0.91653
C          7.22120        12.83497         0.87886
C          5.95112        15.04706         0.89263
C          6.05205        16.46178         0.49566
C          7.27818        14.29323         1.02941
C          7.26577        17.13217         0.47085
C          6.19904        19.15178        -0.49725
C          7.33292        18.50421        -0.03789
C          8.66249         2.07565         0.02923
C          8.66948         3.51055        -0.09604
C          9.86946         1.38167        -0.09270
C          9.83166         4.21852        -0.40004
C          8.49223         6.43643        -0.48693
C          8.57011         7.84845        -0.04094
C          9.75589         5.66191        -0.92810
C          9.77809         8.51124         0.08699
C          8.50761        10.65880         0.38384
C          8.45945        12.14460         0.45492
C          9.81324         9.94221         0.39024
C          9.76008        12.87769         0.45112
C          8.53022        15.05377         0.83184
C          8.51710        16.41947         0.71119
C          9.80545        14.27168         1.05113
C          9.79754        17.22231         0.90802
C          8.61479        19.13232        -0.22408
C          9.81207        18.54944         0.15743
C         11.08826         2.07823        -0.29132
C         11.07231         3.50123        -0.48376
C         12.32429         1.39327        -0.28650
C         12.31511         4.16716        -0.66624
C         11.06096         6.44872        -0.71562
C         11.05463         7.84029        -0.16010
C         12.32881         5.65863        -0.65902
C         12.22891         8.47278         0.15098
C         10.99330        10.62076         0.55400
C         11.05532        12.09921         0.49783
C         12.25600         9.83010         0.80931
C         12.31683        12.84099         0.80800
C         11.04931        14.96384         0.53699
C         11.04947        16.44652         0.50248
C         12.31937        14.19965         0.69467
C         12.34383        17.22432         0.77273
C         11.05275        19.18226        -0.13384
C         12.30380        18.57942         0.09810
C         13.55468         2.03228        -0.51666
C         13.53911         3.47126        -0.72798
C         14.74875         1.23563        -0.32578
C         14.77236         4.25622        -0.80150
C         13.55166         6.30055        -0.08102
C         13.53055         7.76037         0.22161
C         14.82010         5.62638        -0.42673
C         14.80521         8.52923         0.17947
C         13.51829        10.67905         0.33254
C         13.56600        12.02240         1.11417
C         14.82562         9.88547         0.41913
C         14.87898        12.77134         0.84953
C         13.57082        14.96075         0.45274
C         13.58586        16.45366         0.33000
C         14.85837        14.25160         0.65377
C         14.87836        17.18997         0.33647
C         13.52064        19.18624        -0.22420
C         14.81441        18.58597        -0.02559
C         15.99440         1.56612        -0.86331
C         15.98926         3.68670        -1.19842
C         17.30299         1.19342        -0.49804
C         17.24858         4.24960        -0.89727
C         16.02453         6.33209        -0.41553
C         16.01755         7.84914        -0.42315
C         17.25438         5.64165        -0.59208
C         17.32448         8.43102         0.07305
C         16.06462        10.64855         0.36230
C         16.10471        12.03496         0.44845
C         17.34684         9.90158         0.36394
C         17.32015        12.79501         0.16935
C         16.08007        14.96340         0.25306
C         16.06718        16.39089         0.32076
C         17.28682        14.24007         0.09780
C         17.34898        16.99927         0.39109
C         15.93379        19.37817        -0.43936
C         17.27254        19.08216        -0.11387
C         18.45851         2.00911        -0.74746
C         18.45872         3.45539        -0.86970
C         19.71549         1.35239        -0.70511
C         19.69622         4.14982        -0.75673
C         18.51312         6.33706        -0.58261
C         18.56163         7.74104        -0.36940
C         19.71091         5.59986        -0.76337
C         19.75695         8.44480        -0.56271
C         18.62409        10.66576         0.16507
C         18.54219        12.13024        -0.08205
C         19.82858         9.91188        -0.32375
C         19.71898        12.84273        -0.47001
C         18.49659        14.95855        -0.19331
C         18.52138        16.39689        -0.07721
C         19.67335        14.25598        -0.52249
C         19.70534        17.19191        -0.32459
C         18.48868        19.41718        -0.70954
C         19.69267        18.63753        -0.50213
C         20.94767         2.01558        -0.64678
C         20.93425         3.45641        -0.57719
C         22.16622         1.22134        -0.81073
C         22.13754         4.24088        -0.46216
C         20.92633         6.32174        -0.92330
C         20.91763         7.73613        -0.95379
C         22.18528         5.62208        -0.84326
C         22.14104         8.43623        -1.37504
C         20.91315        10.67952        -1.01434
C         20.96595        12.15155        -0.80607
C         22.13974         9.93001        -1.44819
C         22.13695        12.82307        -1.07718
C         20.86080        15.04467        -0.89547
C         20.90977        16.49186        -0.58754
C         22.15928        14.30285        -1.13406
C         22.14729        17.16072        -0.68129
C         20.92520        19.28768        -0.68314
C         22.16235        18.59714        -0.64374
C         23.35106         1.56481        -0.20727
C         23.32599         3.68872         0.04317
C         24.71860         1.16693        -0.41713
C         24.60082         4.24799        -0.16306
C         23.41855         6.30245        -0.85802
C         23.47043         7.70880        -1.30859
C         24.63353         5.62345        -0.55215
C         24.71531         8.49400        -1.17749
C         23.46683        10.64016        -1.57424
C         23.41077        12.14419        -1.45748
C         24.74583         9.91000        -1.25376
C         24.69465        12.90048        -1.23223
C         23.42077        15.02059        -0.87210
C         23.39278        16.43487        -0.71627
C         24.63344        14.31464        -0.80153
C         24.61503        17.13220        -0.53688
C         23.39577        19.27929        -0.60355
C         24.61775        18.57544        -0.49088
C         25.81795         1.99047        -0.17772
C         25.81134         3.46488        -0.08512
C         27.10610         1.32624        -0.11168
C         27.01967         4.17413        -0.12310
C         25.87255         6.30897        -0.56950
C         25.95572         7.71861        -0.99044
C         27.04819         5.60541        -0.24501
C         27.27264         8.44902        -0.79613
C         25.92797        10.62771        -0.96606
C         25.98072        12.10800        -0.98682
C         27.30773         9.97184        -0.94798
C         27.09788        12.81782        -0.32997
C         25.84420        14.98500        -0.49338
C         25.83130        16.40788        -0.36916
C         27.05523        14.24204        -0.22348
C         27.04047        17.11226        -0.08969
C         25.84062        19.25587        -0.33223
C         27.04895        18.55094        -0.11557
C         28.29242         1.99412         0.01762
C         28.34891         3.47144        -0.26163
C         29.53879         1.32361         0.31289
C         29.45037         4.16112         0.49550
C         28.24657         6.34965         0.08002
C         28.32719         7.73358        -0.04234
C         29.31674         5.59250         0.76352
C         29.44517         8.48539         0.49888
C         28.29900        10.65442        -0.02369
C         28.24031        12.06678         0.11471
C         29.41693         9.92932         0.47994
C         29.36281        12.76590         0.67255
C         28.17771        14.96647         0.26637
C         28.21740        16.38919         0.25104
C         29.30283        14.22269         0.84074
C         29.44153        17.10997         0.50780
C         28.26566        19.23495         0.07726
C         29.46046        18.53567         0.35606
C         30.64553         2.03166         0.67379
C         30.59443         3.47491         0.84399
C         31.76783         4.20334         1.28072
C         30.54794         6.34528         1.25095
C         30.55905         7.81639         1.05569
C         31.78384         5.55875         1.37842
C         31.66386         8.55350         1.53027
C         30.54321        10.64573         1.00235
C         30.53834        12.08422         1.01203
C         31.65693         9.93378         1.50448
C         31.76701        12.82167         1.21216
C         30.61019        14.98846         1.14272
C         30.65245        16.43923         0.83381
C         31.82919        14.17673         1.16692
C         31.84319        17.16483         0.94249
C         30.68809        19.24161         0.49805
C         31.85962        18.56055         0.76828
O         19.70734        10.29375         1.08938
O          3.82228        10.16170         2.16736
O          7.10254         3.91459         1.68577
O         10.90191        15.70887        -0.72624
O         23.23214         2.53546         0.81811
O         21.12247        10.34410        -2.41959
O         29.48346         5.94067         2.18476
O         13.47878         6.72543         1.31300
O          2.19064         4.96650         2.07121
O          7.69700         8.93502         1.94611
O         15.09618        13.68167         2.00019
O          7.42280         6.10059        -1.42904
O         23.45739        11.47980        -2.76106
O         17.42390        18.23375         1.01396
O         15.95080         2.49905        -1.92467
O         13.35795        10.95605        -1.00781
O         12.43458        17.39681         2.16874
O          4.51775        18.28419         1.07762
O          8.20538        11.41894        -0.82181
O          6.52999        14.76308         2.20008
O         13.49130        15.62365        -0.86866
O         25.65100        12.70906        -2.29928
O          3.61841         6.92979        -0.84203
O         11.93161         6.32851        -1.90959
O         10.49051        12.67089        -0.76240
O         22.75018         7.88434        -2.58680
O         17.36967         8.90019         1.44668
O         26.95700         7.84773        -2.09449
O         29.65669        14.66948         2.20054
O         21.36482        14.80578        -2.26254
O          6.19207        10.79459         2.79973
H          6.49941         9.92434         3.14193
O          9.60114         5.46998        -2.35176
H         10.49500         5.57714        -2.75730
O         16.00056         8.21528        -1.84649
H         15.08110         8.14653        -2.18163
O         12.34711         9.51439         2.20450
H         12.59608        10.32477         2.71284
O         27.85009        10.24678        -2.27481
H         27.46834         9.56548        -2.87741
O          9.95544        14.09348         2.48460
H          9.80801        14.96272         2.91908
O          3.84539         2.92652         2.38240
H          3.52891         3.68002         2.93073
O          9.86882        17.48344         2.32365
H         10.84417        17.62735         2.54546
O         13.54961        11.76095         2.53995
H         13.96758        12.54165         2.97761
O         28.70930         3.59684        -1.68629
H         28.00586         3.15534        -2.20813
H          0.34864         1.49002        -0.29763
H          0.14891         3.70360         0.77838
H          2.55733         0.45911        -0.75019
H          0.12769         5.79624         0.26703
H          0.15274         8.19016        -0.04206
H          0.16498        10.14219        -0.17497
H          0.23553        12.55107        -0.31502
H          0.32685        14.33222        -0.86226
H          0.43979        16.71566        -1.40701
H          1.71807        18.73911        -1.75398
H          4.96037         0.34535        -0.35965
H          3.79685        20.05125        -1.61020
H          7.42804         0.27982        -0.03448
H          6.30436        20.10403        -1.03996
H          9.88296         0.28534        -0.00573
H          8.63145        20.11751        -0.71845
H         12.31912         0.30978        -0.09477
H         11.02362        20.17108        -0.62330
H         14.66219         0.35123         0.32388
H         13.50279        20.20457        -0.64737
H         17.46151         0.24999         0.04712
H         15.72477        20.24515        -1.08428
H         19.71781         0.25202        -0.70280
H         18.55099        20.27605        -1.39417
H         22.11907         0.35389        -1.48589
H         20.93625        20.38122        -0.80117
H         24.92041         0.12862        -0.72665
H         23.40609        20.37921        -0.59036
H         27.10115         0.22647        -0.04633
H         25.85265        20.35568        -0.33122
H         29.55959         0.22357         0.29925
H         28.28613        20.33255         0.00920
H         31.58241         1.51071         0.91908
H         32.69990         3.63593         1.42113
H         32.73764         6.07827         1.54863
H         32.52354         8.02894         1.96769
H         32.51331        10.47349         1.92764
H         32.71038        12.26197         1.26590
H         32.80956        14.67240         1.14155
H         32.78065        16.65316         1.19869
H         30.69154        20.33464         0.38157
H         32.80715        19.10675         0.87173
