         244
 CSIRO Nanostructure Databank - Neutral Graphene Oxide Data Set
C          1.33652         2.44707        -0.83305
C          1.21700         3.47664         0.05318
C          2.52730         1.75530        -1.24508
C          2.27340         4.21172         0.86703
C          1.16774         6.42728         0.38899
C          1.20266         7.80868         0.17145
C          2.34139         5.68784         0.52123
C          2.41766         8.50966         0.16409
C          1.28593        10.71165        -0.33246
C          1.27156        12.06236        -0.35245
C          2.49042         9.94197        -0.05641
C          2.51051        12.87312        -0.06206
C          1.56064        14.75054        -1.57892
C          1.69477        15.99332        -2.17971
C          2.63759        14.16391        -0.87334
C          2.92373        16.68924        -2.12790
C          3.08206        17.98818        -2.71159
C          3.68835         1.75350        -0.48486
C          3.62233         3.56511         0.76121
C          5.01043         1.49157        -0.89290
C          4.82796         4.18368         0.56292
C          3.59714         6.36009         0.47474
C          3.63189         7.78375         0.37223
C          4.83560         5.64439         0.58096
C          4.86650         8.47776         0.56966
C          3.70952        10.59892         0.06109
C          3.79491        12.03280        -0.37246
C          4.90169         9.92486         0.50118
C          5.01514        12.74323         0.13492
C          3.87073        14.81325        -0.82111
C          4.03694        16.08051        -1.46549
C          4.94301        14.25709         0.10046
C          5.27373        16.77543        -1.43148
C          4.26853        18.66893        -2.62669
C          5.40817        18.07782        -1.97968
C          6.13485         2.15523        -0.32162
C          6.09267         3.47226         0.32031
C          7.38923         1.56761        -0.56229
C          7.28980         4.16512         0.53715
C          6.03804         6.33135         0.76077
C          6.04380         7.74345         0.81691
C          7.26453         5.54713         1.17398
C          7.24008         8.43620         1.33502
C          6.05971        10.65252         0.83504
C          6.10269        12.09323         0.66393
C          7.20636         9.94860         1.44859
C          7.29987        12.88294         1.21977
C          6.31879        14.77194        -0.22010
C          6.47489        16.08764        -0.93602
C          7.45641        14.22682         0.53462
C          7.67546        16.87227        -0.63150
C          6.64568        18.75498        -1.89213
C          7.74448        18.24314        -1.13841
C          8.60116         2.19460        -0.21543
C          8.56406         3.56004         0.28181
C          9.81129         1.49282        -0.32283
C          9.76441         4.26246         0.47661
C          8.54539         6.34830         1.01881
C          8.54009         7.72203         1.24667
C          9.77926         5.65305         0.80598
C          9.76614         8.48073         1.30788
C          8.50826        10.69215         1.77606
C          8.60686        12.10440         1.23382
C          9.75517         9.88785         1.46747
C          9.84147        12.74165         1.23944
C          8.64519        14.90377         0.52792
C          8.69733        16.29596         0.08857
C          9.95225        14.15870         0.69968
C          9.82122        17.14925         0.55298
C          8.87883        19.00371        -0.91000
C          9.82283        18.64131         0.20131
C         11.05278         2.12025        -0.02859
C         11.05688         3.62943         0.02710
C         12.21909         1.40088         0.05090
C         12.30027         4.19137         0.67800
C         11.00594         6.37072         0.93596
C         11.01313         7.75196         1.19795
C         12.28128         5.62674         1.06381
C         12.25716         8.45109         1.45367
C         10.98090        10.60587         1.66178
C         11.06229        12.02765         1.54831
C         12.11879         9.77356         1.90756
C         12.39800        12.77200         1.86036
C         11.07657        14.98429         1.29001
C         11.07667        16.46650         1.01130
C         12.36767        14.28667         1.57377
C         12.37107        17.16209         0.89412
C         11.20909        19.20130         0.06427
C         12.35825        18.56184         0.49798
C         13.50962         1.98683         0.55060
C         13.46822         3.49769         0.62996
C         14.72420         1.42008        -0.14060
C         14.71084         4.28765         0.39614
C         13.59033         6.38133         1.25726
C         13.56702         7.86255         1.26565
C         14.91546         5.62069         1.09479
C         14.77165         8.58914         1.00467
C         13.93775        10.85088         1.67415
C         13.65241        12.12887         1.28818
C         14.90528         9.99323         1.05066
C         14.68437        12.85660         0.46715
C         13.61684        15.01702         1.20118
C         13.57240        16.46186         1.00907
C         14.76165        14.32816         0.83387
C         14.82376        17.16399         0.80707
C         13.60282        19.27244         0.48581
C         14.81601        18.61736         0.66129
C         15.83199         2.14293        -0.44389
C         15.84390         3.62573        -0.29812
C         17.05933         1.50965        -0.89444
C         17.15404         4.35557        -0.53883
C         16.03592         6.40306         0.44881
C         15.95980         7.90696         0.32257
C         17.17866         5.76582         0.02950
C         17.30674         8.54883         0.70594
C         16.08893        10.71214         0.59887
C         16.03000        12.14853         0.50682
C         17.28664        10.03057         0.47559
C         17.21418        12.87643         0.27139
C         15.99833        15.02576         0.56337
C         16.01112        16.46286         0.67511
C         17.16433        14.31597         0.22663
C         17.33273        17.18506         0.76721
C         16.04151        19.33116         0.53734
C         17.27770        18.67360         0.50357
C         18.27040         2.14189        -0.85023
C         18.39808         3.51992        -0.22608
C         19.45871         1.50794        -1.38128
C         19.60727         4.28692        -0.70919
C         18.41567         6.50136        -0.19549
C         18.47997         7.86113         0.01847
C         19.72255         5.72433        -0.27574
C         19.68581         8.60980        -0.28447
C         18.59511        10.75981         0.50870
C         18.47426        12.21064         0.11090
C         19.71525        10.01326        -0.18467
C         19.65446        12.90778        -0.23654
C         18.37333        15.04426        -0.21013
C         18.41413        16.53529        -0.06141
C         19.65557        14.33733        -0.35678
C         19.71564        17.23051        -0.11174
C         18.48609        19.34232         0.28678
C         19.72168        18.64285         0.06487
C         20.58688         2.22421        -1.62353
C         20.64951         3.65207        -1.34885
C         21.79306         4.41016        -1.78605
C         20.81406         6.49742        -0.96640
C         20.82071         7.90742        -0.84527
C         21.84330         5.77674        -1.62806
C         21.93838         8.68092        -1.28445
C         20.85845        10.75278        -0.59249
C         20.87229        12.18750        -0.49751
C         21.96125        10.04555        -1.15659
C         22.05290        12.93446        -0.73974
C         20.85043        15.05431        -0.53953
C         20.88792        16.52093        -0.43920
C         22.05257        14.31301        -0.72480
C         22.08981        17.25585        -0.57052
C         20.94143        19.33921        -0.08550
C         22.10670        18.64084        -0.39632
O         13.15699        10.26374         2.68043
O         18.02746        15.96984        -1.34308
O          6.87877         9.09454         2.60896
O          6.66396        14.79786        -1.65054
O         10.10969        17.04075         1.98868
O         11.52793        14.84910         2.66013
O          2.41506        13.23401         1.29044
O         14.80440         4.34019        -1.08990
O         12.86293         5.82922         2.41559
O          3.56966         2.17409         0.86742
O         11.20993         4.07950        -1.36977
H         12.03499         3.67789        -1.71961
O         13.64137         1.52772         1.94630
H         12.81804         1.77582         2.41829
O         18.47905         3.37082         1.22307
H         19.14637         2.67943         1.41814
O         17.78025        17.02160         2.15254
H         17.12140        17.45468         2.73521
O          9.26359        19.35574         1.35993
H          9.51059        18.81649         2.15040
O          7.02715        13.15821         2.62174
H          7.35664        12.38876         3.14920
O          7.14241         5.32594         2.61973
H          6.25924         4.93235         2.78436
O         17.23896         4.56928        -1.97286
H         16.34826         4.86599        -2.26795
O          1.84814         4.12297         2.26378
H          1.89406         3.17599         2.51589
O         20.13180         5.63547         1.15341
H         19.52293         4.97580         1.56888
O         14.23850        12.83612        -0.93484
H         14.90289        13.32774        -1.46339
O         12.53275        12.64500         3.29964
H         11.88972        13.27581         3.69924
O         10.41635        13.99677        -0.69196
H          9.67353        13.63605        -1.22247
O         15.39954         5.32940         2.43426
H         14.60211         5.24279         3.00911
O          8.51577        10.88261         3.23635
H          8.07732        10.07805         3.61150
O          4.60716        14.70047         1.43504
H          3.74881        14.22595         1.66618
O         17.53583         8.34847         2.13318
H         17.53956         7.38073         2.30414
O         18.96710        10.77935         1.94424
H         18.70091         9.90548         2.32112
O          3.87160        12.02573        -1.83937
H          4.67073        11.51955        -2.09599
O         15.80534         8.17700        -1.10463
H         15.01885         7.69062        -1.42865
H          0.41557         2.15804        -1.36780
H          0.19753         3.86214         0.21386
H          2.53407         1.28361        -2.23803
H          0.19301         5.92594         0.46120
H          0.25041         8.34070         0.05056
H          0.33698        10.17165        -0.46335
H          0.30503        12.58686        -0.39660
H          0.59514        14.22888        -1.63794
H          0.83991        16.44918        -2.70034
H          2.22020        18.44460        -3.22017
H          5.19181         0.80888        -1.73727
H          4.36858        19.67395        -3.06104
H          7.42537         0.56658        -1.01698
H          6.73661        19.75856        -2.33456
H          9.79378         0.42083        -0.56989
H          8.94582        20.01934        -1.32945
H         12.17982         0.30615        -0.06620
H         11.28312        20.26014        -0.22879
H         14.75619         0.32369        -0.24029
H         13.59343        20.35178         0.27400
H         17.00005         0.47361        -1.26358
H         16.00320        20.41824         0.36865
H         19.40199         0.44405        -1.65641
H         18.48915        20.44171         0.22797
H         21.46689         1.74247        -2.07358
H         22.60987         3.88398        -2.30012
H         22.70224         6.31627        -2.05036
H         22.81525         8.17903        -1.71371
H         22.84616        10.59424        -1.50450
H         23.00576        12.41473        -0.90570
H         23.00496        14.83858        -0.87183
H         23.03091        16.74823        -0.81946
H         20.96269        20.43203         0.03098
H         23.05345        19.18668        -0.51298
