         276
 CSIRO Nanostructure Databank - Neutral Graphene Oxide Data Set
C        -11.17837         0.71342        -0.53041
C         -9.97878         1.47974        -0.25707
C         -8.74360         0.69458        -0.06954
C         -7.46072         1.42416        -0.07284
C         -6.17957         0.62592         0.11074
C         -4.93420         1.34941        -0.42837
C         -3.63458         0.63797        -0.51402
C         -2.36109         1.38580        -0.12225
C         -1.08675         0.65166        -0.60944
C          0.14449         1.46237        -0.93727
C          1.29296         0.72777        -1.56645
C          2.42236         1.23038        -2.12463
C          3.76454         0.56068        -2.11932
C          4.92075         1.46822        -1.54746
C          6.24125         0.70818        -1.55494
C          7.53166         1.47905        -1.52941
C          8.70799         0.81878        -0.91415
C          9.80390         1.62610        -0.52391
C         10.94121         1.01628         0.18117
C         -9.90971         2.85293        -0.16400
C         -8.68207         3.56353         0.19195
C         -7.45345         2.75777         0.22485
C         -6.07806         3.17771         0.67525
C         -4.98453         2.87512        -0.36204
C         -3.65585         3.56148        -0.10297
C         -2.43294         2.91635        -0.31658
C         -1.21473         3.69513        -0.43586
C          0.15622         3.01074        -0.62818
C          1.15810         3.91485        -1.37743
C          2.49609         3.39589        -1.74652
C          3.69867         3.81834        -1.31309
C          4.94461         2.97346        -1.40205
C          6.21700         3.79824        -1.66875
C          7.52587         2.98034        -1.71784
C          8.85899         3.75739        -1.59380
C          9.88090         2.99075        -0.80760
C         -8.68195         4.91600         0.46353
C         -7.50358         5.58800         1.11134
C         -6.22171         5.75778         0.28455
C         -4.87333         5.67883         0.99956
C         -3.65613         4.87174         0.59040
C         -2.30712         5.63142         0.65018
C         -1.23090         5.07196        -0.18153
C         -0.07743         5.96511        -0.45811
C          1.19076         5.32098        -0.92673
C          2.48141         5.84773        -0.36574
C          3.72005         5.01216        -0.42533
C          5.05749         5.62178        -0.13505
C          6.29494         4.97504        -0.67901
C          7.56117         5.77127        -0.66982
C          8.75728         5.11837        -0.97207
C         -6.97201         6.97678         0.78052
C         -6.04945         7.76540         1.75221
C         -4.73244         6.93326         1.82194
C         -3.40267         7.62344         1.94427
C         -2.23240         7.04885         1.20240
C         -1.30901         8.06376         0.52216
C         -0.02841         7.39621        -0.01402
C          1.29953         7.94010         0.52824
C          2.56846         7.27481         0.01722
C          3.77670         7.84505         0.27608
C          5.09144         7.07043         0.37949
C          6.20296         7.87361        -0.33730
C          7.51190         7.13096        -0.35177
C         -5.74775         9.14559         1.20915
C         -4.57116         9.75780         1.39850
C         -3.47315         9.12569         2.23063
C         -2.11981         9.79241         2.08016
C         -1.07623         9.29030         1.39290
C          0.24299        10.06600         1.38238
C          1.32545         9.46855         0.44324
C          2.70703        10.01968         0.73367
C          3.84125         9.27209         0.62112
C          5.17180         9.87819         0.72174
C          6.28031         9.25410         0.27518
C        -11.20869        -0.65507        -0.64718
C        -10.03687        -1.49998        -0.53931
C         -8.76487        -0.78297        -0.27329
C         -7.49877        -1.47166        -0.63413
C         -6.23888        -0.76451        -0.43766
C         -4.99736        -1.52528        -0.44103
C         -3.65870        -0.86117        -0.34109
C         -2.43081        -1.62246        -0.77124
C         -1.17260        -0.84344        -0.96341
C         -0.03507        -1.51351        -1.69859
C          1.25625        -0.76824        -1.70585
C          2.53007        -1.46034        -1.39545
C          3.69216        -0.75272        -1.36562
C          4.83744        -1.09367        -0.43077
C          6.18812        -0.67845        -0.99422
C          7.41177        -1.39984        -0.51353
C          8.77652        -0.68381        -0.61846
C          9.51278        -0.90906         0.73747
C         10.83586        -0.18760         0.76294
C        -10.04617        -2.88127        -0.53702
C         -8.83981        -3.68569        -0.34326
C         -7.54373        -2.98467        -0.56969
C         -6.24232        -3.64433        -0.11579
C         -5.09052        -2.95808        -0.84192
C         -3.87496        -3.69631        -1.28875
C         -2.57206        -2.91235        -1.58857
C         -1.31277        -3.79068        -1.52014
C          0.04104        -3.08091        -1.77058
C          1.17163        -3.60551        -0.88357
C          2.55066        -2.97012        -1.19999
C          3.55041        -3.36649        -0.10674
C          4.72633        -2.49387         0.19107
C          5.92833        -2.97296         1.02396
C          7.25931        -2.60555         0.36488
C          8.49219        -3.17186         1.00558
C          9.62787        -2.36802         1.05565
C         -8.83775        -5.03493        -0.08271
C         -7.55917        -5.78061         0.29103
C         -6.35688        -5.13584        -0.36859
C         -5.14533        -5.89828        -0.79359
C         -3.85717        -5.11404        -0.77160
C         -2.58455        -5.81931        -0.48065
C         -1.31850        -5.21190        -1.02237
C          0.00582        -5.96502        -0.78830
C          1.17365        -5.03541        -0.45002
C          2.54953        -5.71353        -0.38005
C          3.51554        -4.80087         0.38342
C          4.64288        -5.32880         1.21517
C          5.89271        -4.49130         1.42285
C          7.19570        -5.24604         1.55385
C          8.46467        -4.51791         1.38816
C         -7.48765        -7.29078         0.19084
C         -6.32498        -7.97958         0.00397
C         -5.10983        -7.42722        -0.75172
C         -3.78263        -8.00897        -0.27201
C         -2.63069        -7.29165        -0.20592
C         -1.41346        -7.79127         0.52032
C         -0.08161        -7.10771         0.24125
C          1.22131        -7.83189         0.44459
C          2.54050        -7.16039         0.13961
C          3.67956        -7.69885         0.94188
C          4.70304        -6.80340         1.64211
C          6.05974        -7.46356         1.62045
C          7.20229        -6.73059         1.54637
C         -6.24270        -9.37342         0.42678
C         -5.07492       -10.04760         0.50172
C         -3.79725        -9.47558         0.01476
C         -2.52091       -10.23984         0.19959
C         -1.15262        -9.60232         0.00428
C         -0.06370        -9.92589         0.88648
C          1.30403        -9.38530         0.56088
C          2.42944        -9.78464         1.49935
C          3.56586        -9.04276         1.59331
C          4.83907        -9.56907         2.07123
C          6.01191        -8.88396         1.93691
O          7.65277         2.11481        -2.89022
O         -3.22094       -10.34260        -1.05909
O         -0.21972         7.12069        -1.41826
O          4.88297         2.09968        -0.22893
O          7.36541        -2.76451        -1.08301
O          6.27977        -0.45933        -2.43879
O         -2.28918         7.02166         2.66287
O         -4.98816         5.67079         2.46821
O          6.43903        -4.69931         2.74715
O          0.88948        -3.96668         0.49171
O         -1.41583        -1.65143         0.25371
O         -7.53169        -2.30571        -1.85493
O         -4.24337        -1.36431         0.86942
O         -2.72193         4.73447         1.70399
O         -5.79566         3.31638         1.85421
O          2.94314        -3.42363        -2.47002
O          5.85989         4.69659         0.68708
O         -0.03389         0.79174         0.37708
O          3.51575        -2.45977         1.03135
O         -3.26045        -5.08331         0.58780
O          0.90429         4.97622        -2.34882
O         -8.74246        -0.24655         1.10303
O         -4.37769         0.97247        -1.73465
O          2.87044         4.95491         0.77013
O         -1.49069        -4.91161        -2.44460
O         -4.92106        -3.33361        -2.22656
O          3.62726        -7.88533        -0.51303
O          2.45402         2.46158        -2.76814
O          0.63468        -7.00785         1.51633
O          0.44979        -0.97742        -2.95039
O          4.30598        -6.84687         3.03812
O         -6.14874        -5.47125        -1.76652
O          0.73606         3.10696         0.69926
H          0.36802         2.36615         1.24008
O          5.76009         7.98508        -1.72359
H          6.45221         8.45601        -2.23287
O          9.39322         3.96909        -2.93652
H          9.17076         3.16237        -3.45648
O          3.41745        -4.79269         1.83338
H          3.71364        -6.07714         3.20047
O         -5.46530         3.24759        -1.67870
H         -4.95978         2.70717        -2.33173
O         -6.62991         7.87152         3.04904
H         -6.82814         6.94972         3.33738
O         -2.63971        -2.45275        -2.94729
H         -2.48059        -3.21790        -3.54148
O          8.62915        -0.29768         1.72118
H          8.90401        -0.58269         2.61739
O          0.41123        -3.44969        -3.10020
H          1.41272        -3.36805        -3.17942
O          6.05219         4.39854        -2.96968
H          6.31541         3.73441        -3.64388
O          4.67380        -0.19882         0.69965
H          3.88946        -0.50620         1.20769
O         -5.96861         0.54641         1.54966
H         -6.75341         0.09194         1.93321
O         -6.05905        -3.36097         1.27712
H         -6.53287        -4.04045         1.81381
O         -2.30537         1.25391         1.31860
H         -3.03283         1.76861         1.72853
O         -1.69995        -7.82899         1.87001
H         -0.86384        -7.59711         2.35226
O         -3.85787         9.25794         3.61853
H         -3.30479         8.63226         4.13298
O          0.99224         9.81559        -0.92071
H          1.14608        10.77463        -1.04588
O         -2.09009         8.53459        -0.60898
H         -1.59545         8.28829        -1.42850
O          5.39499         7.03372         1.78514
H          5.68632         6.11697         1.99892
O         -0.85478        -9.47231        -1.34564
H         -1.68887        -9.66182        -1.84570
O          0.32999        -6.64518        -2.01241
H          0.21038        -5.99796        -2.74790
O         -6.27122         5.68679        -1.11942
H         -6.09479         4.78286        -1.46742
O          4.07289         0.31457        -3.50474
H          4.82730        -0.31875        -3.54824
O          1.73100        -9.84889        -0.73346
H          0.98321        -9.74104        -1.36523
O         -5.25836        -7.89599        -2.11246
H         -5.89835        -7.29119        -2.55416
O          9.56569        -1.31143        -1.64177
H          8.97070        -1.54732        -2.38474
O          0.75636        10.16987         2.71174
H          0.99008         9.25941         3.00299
O          1.27016         7.59478         1.94610
H          1.65180         6.69673         2.06391
O          5.90536        -2.22222         2.24520
H          5.01274        -2.33571         2.63920
O         -7.46913         5.23184         2.47974
H         -6.82491         4.49195         2.62365
O         -7.41136        -5.57752         1.74624
H         -8.24820        -5.85308         2.17702
O          2.99513        -5.78552        -1.74005
H          3.56738        -6.58017        -1.84066
H         11.68227        -0.63124         1.30905
H         11.87594         1.59386         0.23629
H         10.78204         3.53821        -0.49224
H          9.69492         5.69501        -0.93371
H          8.45507         7.69842        -0.29008
H          7.25969         9.75528         0.32958
H          5.23831        10.89897         1.12893
H          2.78861        11.10126         0.92868
H          0.03369        11.11464         1.03631
H         -1.97938        10.71876         2.65982
H         -4.40037        10.76303         0.98413
H         -6.53892         9.65102         0.63224
H         -7.51419         7.55760         0.01491
H         -9.63294         5.46708         0.36568
H        -10.82513         3.45095        -0.29541
H        -12.12197         1.27021        -0.63617
H        -12.17564        -1.14618        -0.83456
H        -11.00689        -3.41133        -0.63218
H         -9.79632        -5.56396         0.04341
H         -8.33184        -7.83550         0.65031
H         -7.16889        -9.85122         0.78204
H         -5.05892       -11.08886         0.85530
H         -2.55194       -11.16397         0.81919
H         -0.32117       -10.07832         1.94709
H          2.41325       -10.80951         1.90165
H          4.86031       -10.61392         2.41662
H          6.96160        -9.38633         2.17594
H          8.18212        -7.23167         1.58818
H          9.39302        -5.01164         1.71509
H         10.58223        -2.78182         1.41711
