         272
 CSIRO Nanostructure Databank - Neutral Graphene Oxide Data Set
C        -11.12332         0.61408         0.57543
C        -10.03927         1.45874        -0.06907
C         -8.76613         0.61153        -0.08730
C         -7.42745         1.20856         0.17699
C         -6.16430         0.52824        -0.30265
C         -4.85599         1.28019        -0.25859
C         -3.68591         0.68028        -0.99605
C         -2.36340         1.35144        -0.77092
C         -1.11489         0.61283        -1.20284
C          0.09733         1.41697        -1.62421
C          1.43691         0.66169        -1.88416
C          2.68895         1.41800        -1.34425
C          3.86062         0.67391        -0.78248
C          4.89546         1.34741         0.08199
C          6.24188         0.66643         0.05939
C          7.35680         1.31684         0.81770
C          8.67320         0.58189         0.90331
C          9.98131         1.38246         0.97827
C         10.98870         0.77742         0.00818
C         -9.82229         2.80867         0.57279
C         -8.62374         3.38276         0.80416
C         -7.34062         2.62901         0.67705
C         -6.02684         3.36262         0.67325
C         -4.80775         2.75091         0.05296
C         -3.68087         3.49317        -0.17995
C         -2.38081         2.82360        -0.51131
C         -1.24898         3.62706        -1.09153
C          0.04871         2.90959        -1.44418
C          1.31438         3.63920        -1.07079
C          2.65451         2.92958        -1.14459
C          3.78787         3.62559        -0.42965
C          4.82218         2.82361         0.32215
C          5.95857         3.53623         1.06017
C          7.28137         2.77083         1.17467
C          8.58833         3.55242         1.38078
C          9.74996         2.86069         0.73096
C         -8.54826         4.81527         1.32016
C         -7.38747         5.59165         0.67303
C         -6.06073         4.85651         0.85577
C         -4.82200         5.63979         0.65102
C         -3.56964         4.93715         0.20387
C         -2.40602         5.76501        -0.27715
C         -1.28884         5.12123        -1.05733
C          0.00864         5.89734        -1.13920
C          1.26511         5.12064        -0.81978
C          2.59841         5.87245        -0.85043
C          3.62963         5.06651        -0.02568
C          4.77510         5.78355         0.62725
C          6.03763         5.07854         1.11486
C          7.35121         5.73610         0.79618
C          8.51326         4.95417         0.83304
C         -7.28878         7.01421         1.18456
C         -6.17255         7.75424         0.96915
C         -5.01611         7.11282         0.22094
C         -3.68336         7.85451         0.40616
C         -2.53721         7.26763        -0.36486
C         -1.30695         8.09691        -0.61481
C         -0.00567         7.37944        -0.89961
C          1.22702         8.04283        -0.35155
C          2.49513         7.28365        -0.27693
C          3.83042         8.03771        -0.28397
C          4.84078         7.28668         0.61014
C          6.17883         7.97058         0.71093
C          7.37220         7.13259         0.62140
C         -6.10467         9.18482         1.24534
C         -4.98682         9.92547         1.06646
C         -3.67677         9.30335         0.74697
C         -2.55148        10.18778         0.22001
C         -1.23231         9.47126        -0.03131
C         -0.05082        10.10956         0.13662
C          1.24950         9.55886        -0.42714
C          2.53228        10.15716         0.12318
C          3.71643         9.49268         0.12985
C          5.02318        10.13088         0.30961
C          6.17828         9.42863         0.42722
C        -11.16840        -0.71917         0.41079
C        -10.17544        -1.45778        -0.42394
C         -8.90157        -0.73596        -0.73658
C         -7.64547        -1.44928        -1.16989
C         -6.31819        -0.72336        -1.15371
C         -5.05146        -1.54716        -1.53704
C         -3.74862        -0.73949        -1.46862
C         -2.48306        -1.54800        -1.69302
C         -1.16292        -0.86455        -1.44715
C          0.13059        -1.56898        -1.89536
C          1.31802        -0.76848        -1.33716
C          2.48861        -1.48380        -0.74213
C          3.79634        -0.80008        -0.52053
C          5.08002        -1.55478        -0.45119
C          6.36035        -0.75890        -0.40553
C          7.63078        -1.53696        -0.18530
C          8.74314        -0.87481         0.58034
C         10.16119        -1.52783         0.45961
C         11.06440        -0.53712        -0.25045
C        -10.22295        -2.98684        -0.48439
C         -8.85043        -3.64180        -0.39890
C         -7.64307        -2.96088        -1.00540
C         -6.30757        -3.60954        -0.68897
C         -4.98308        -2.89433        -0.82815
C         -3.73270        -3.71108        -1.04345
C         -2.51474        -3.05144        -1.65079
C         -1.22050        -3.81771        -1.48455
C          0.09222        -3.07921        -1.42900
C          1.20946        -3.72005        -0.62935
C          2.48401        -2.96543        -0.43956
C          3.76695        -3.75312        -0.58993
C          5.07687        -3.03249        -0.73437
C          6.39331        -3.78614        -0.63481
C          7.65214        -3.02119        -0.34820
C          8.86739        -3.73589         0.29970
C         10.02379        -2.88707        -0.15608
C         -8.78890        -4.91124         0.10418
C         -7.52961        -5.62709         0.33361
C         -6.45644        -4.57586         0.47279
C         -4.76256        -5.71363         0.05231
C         -3.89134        -5.24535        -1.07664
C         -2.56742        -6.09771        -1.09632
C         -1.30610        -5.30028        -1.18820
C          0.01222        -5.99176        -0.97209
C          1.22082        -5.23084        -0.51828
C          2.47798        -5.99146        -0.19534
C          3.76120        -5.13111         0.09212
C          5.08229        -5.91968        -0.00628
C          6.37905        -5.25803        -0.37743
C          7.63113        -5.99288        -0.01805
C          8.93898        -5.21977        -0.17596
C         -7.42932        -6.95397         0.61884
C         -6.17818        -7.82950         0.56688
C         -4.86396        -7.10113         0.42403
C         -3.48863        -7.79272         0.51732
C         -2.59352        -7.68122        -0.74463
C         -1.16856        -8.33434        -0.39579
C          0.01251        -7.41176        -0.54916
C          1.24026        -8.26113        -0.29015
C          2.55725        -7.48334        -0.65470
C          3.80849        -8.17304        -0.09175
C          5.09676        -7.40959         0.00010
C          6.38875        -8.22882        -0.04129
C          7.61452        -7.33879         0.10859
C         -6.03874        -8.92059         1.60543
C         -4.85628        -9.56337         1.77234
C         -3.60081        -9.14439         1.16762
C         -2.39523        -9.73130         1.41372
C         -1.17398        -9.11900         0.91904
C          0.00720        -9.42045         1.54041
C          1.29172        -9.02479         1.01212
C          2.44378        -9.57784         1.49700
C          3.75912        -9.29639         0.89692
C          5.04175        -9.63639         1.57781
C          6.23800        -9.20611         1.13278
O          5.25470         7.75248         1.90044
O          8.47359        -0.46047         1.93147
O          3.85107         1.04868        -2.16717
O         -2.86916        -6.92018         1.45673
O         -1.96989        -5.89421        -2.38651
O          4.31777        -3.48559        -1.90577
O         -0.27845        -3.81930        -2.61796
O          7.01755         1.74036         2.18691
O          1.68879         7.45687         0.90933
O         -2.07655         1.88226         0.56001
O         -0.93990        -0.36454        -0.10982
O          4.34014         8.00090        -1.59291
O         -2.57540        -2.34622        -2.91665
O          1.50839        -5.72347         0.84648
O          0.87035        -9.32903        -1.29120
O         -6.97253        -3.85363        -1.94760
O          4.33503        -1.21199         0.77390
O          3.75780         3.52765        -1.87957
O          5.19152        -6.65055         1.25373
O          8.10089        -2.13679        -1.43413
O         -5.33332         7.03711        -1.14291
O          3.60998         5.30222         1.39346
O          1.47694        -0.80545         0.08616
O         -4.04373        -3.08242         0.24721
O         -5.24299         0.36687         0.81701
O         -8.12998         0.41725         1.21065
O         -7.16599        -0.69708        -2.33625
O          0.12979         6.83143        -2.24159
O         -4.45892        -5.87949         1.34915
O          6.50117        -4.73697        -1.74688
O         -3.30414         8.27150         1.74012
O         -1.70524         4.41270        -2.24864
O         -5.25596         5.32299         1.99080
O         -2.31554         7.88649        -1.65800
O          3.90182        -9.53704        -0.57689
O         -0.67724        -9.35485        -1.38258
O         -0.10303         2.31648        -2.76207
O          6.55974         0.33977        -1.33533
O         -2.43486         5.25053         1.08515
O          1.58120        -3.19214         0.67728
O         -3.86616         0.39296        -2.41495
O         -9.95118        -0.84554        -1.73625
O          0.18990        -7.00044        -1.97425
O         -6.50010         2.68437         1.87835
O          4.30886         1.84409         1.30346
O          1.11868         4.20208         0.28464
O          5.91043         4.99004         2.63217
O         -6.26022        -4.10924         1.60719
O          1.61971         0.55757        -3.28847
H          1.29106         1.38205        -3.71282
O        -10.45430         1.73348        -1.42881
H         -9.85825         2.40945        -1.81158
O        -11.06556        -3.49817         0.54908
H        -10.64062        -3.32989         1.41538
O          8.70510        -3.70193         1.72135
H          9.35796        -3.06466         2.10498
O         -3.17529        -8.34330        -1.84043
H         -2.56923        -8.26376        -2.60757
O         -9.76338         5.50940         1.05517
H         -9.72586         5.79543         0.11681
O          6.53048        -8.96125        -1.26333
H          5.72014        -9.51579        -1.36079
O          9.28039        -5.22315        -1.56361
H          8.45688        -5.05462        -2.08021
O         -4.59652        -5.58064        -2.27177
H         -3.96199        -5.55306        -3.02155
O         10.65092        -1.70406         1.81377
H         10.60736        -0.81656         2.25411
O         -6.28364        -8.51683        -0.72088
H         -7.07741        -9.09118        -0.69947
O          3.71469        -4.73977         1.47834
H          2.77198        -4.56022         1.71511
O         10.52486         1.20769         2.32124
H          9.89903         1.65145         2.93774
O         -5.17721        -1.93166        -2.91187
H         -5.21191        -1.11691        -3.45788
O          2.72891        -7.44405        -2.07498
H          2.19013        -8.16817        -2.46739
O          1.23666         9.86635        -1.84823
H          1.23317        10.83964        -1.95672
O          5.47640         3.60225         2.53211
H          6.08831         3.02445         3.08391
O          8.72217         3.63296         2.86596
H          9.54014         4.14342         3.05038
O         -7.63524         5.64761        -0.75636
H         -6.90766         6.22756        -1.14016
O         -2.98241        10.72023        -1.04435
H         -3.02574         9.97135        -1.68174
O          0.23264        -1.53782        -3.30653
H         -0.36314        -2.23161        -3.67629
O          2.99043         5.94583        -2.21170
H          3.57260         6.76073        -2.32691
H         11.82550        -0.92250        -0.94600
H         11.68896         1.46959        -0.48360
H         10.68100         3.45382         0.76591
H          9.46994         5.45205         0.61813
H          8.33199         7.61081         0.37689
H          7.14414         9.95529         0.45386
H          5.06755        11.22937         0.24414
H          2.51808        11.23593         0.35453
H         -0.04725        11.12831         0.55799
H         -2.38676        11.05554         0.90731
H         -5.01293        11.01462         1.21838
H         -7.03767         9.68018         1.55652
H         -8.18024         7.46100         1.65209
H         -8.39623         4.78933         2.42999
H        -10.72058         3.43179         0.71821
H        -11.89380         1.12097         1.17568
H        -11.96885        -1.31254         0.87825
H        -10.69761        -3.27963        -1.45746
H         -9.73320        -5.40284         0.39193
H         -8.36490        -7.54267         0.61721
H         -6.93789        -9.27900         2.12838
H         -4.80875       -10.42776         2.45364
H         -2.31280       -10.63185         2.04152
H         -0.00521       -10.04936         2.44319
H          2.40055       -10.22027         2.38937
H          4.99002       -10.32484         2.43579
H          7.15548        -9.55119         1.63423
H          8.57049        -7.86542         0.26321
H          9.75776        -5.73618         0.38274
H         10.53128        -3.14478        -1.09931
