         344
 CSIRO Nanostructure Databank - Neutral Graphene Oxide Data Set
C          1.66052         2.16145         1.67144
C          1.56355         3.56179         1.42186
C          2.64843         1.41286         1.11035
C          2.57667         4.25305         0.74222
C          1.36570         6.43499         0.88236
C          1.30917         7.80966         0.73743
C          2.54265         5.70709         0.58531
C          2.43972         8.54475         0.31925
C          1.20744        10.71790         0.33469
C          1.17920        12.10220         0.17762
C          2.40490         9.98848         0.18485
C          2.35091        12.83009        -0.05508
C          1.11936        15.05774         0.15217
C          1.16384        16.38583         0.41002
C          2.31810        14.31162        -0.37755
C          2.40149        17.12933         0.36017
C          2.42648        18.52972         0.55322
C          3.60880         2.03200         0.13925
C          3.70529         3.53146         0.26366
C          4.94519         1.35493         0.10697
C          4.87522         4.20343        -0.17525
C          3.68094         6.40112         0.11646
C          3.64291         7.83551         0.02225
C          4.88705         5.66467        -0.24002
C          4.80231         8.56848        -0.36101
C          3.60481        10.70374        -0.09963
C          3.58346        12.13263        -0.15304
C          4.82209         9.98625        -0.35771
C          4.82129        12.85411        -0.28116
C          3.62282        15.00903        -0.05904
C          3.62563        16.41829         0.17065
C          4.83185        14.29934        -0.15017
C          4.85814        17.12762         0.25377
C          3.61943        19.23112         0.56423
C          4.86696        18.55089         0.43190
C          6.07600         2.03168        -0.25247
C          6.04625         3.45836        -0.45430
C          7.32859         1.24870        -0.58938
C          7.28348         4.12906        -0.89234
C          6.02269         6.34732        -0.64080
C          5.99648         7.81563        -0.77312
C          7.27166         5.64821        -1.02776
C          7.30562         8.56497        -0.86182
C          6.04276        10.72597        -0.55733
C          6.02487        12.14207        -0.45807
C          7.30670        10.02648        -0.62423
C          7.28225        12.90569        -0.59459
C          6.08108        15.00374        -0.03532
C          6.08790        16.41733         0.15946
C          7.32068        14.31781        -0.16484
C          7.32271        17.11534         0.26615
C          6.09592        19.23860         0.47591
C          7.32823        18.54428         0.40582
C          8.60343         2.04578        -0.46330
C          8.57604         3.45247        -0.64562
C          9.81431         1.38855        -0.29771
C          9.77407         4.20080        -0.56537
C          8.57062         6.35405        -0.86323
C          8.58609         7.81662        -0.77705
C          9.73366         5.65007        -0.62454
C          9.76402         8.50321        -0.71629
C          8.51454        10.67991        -0.49766
C          8.59559        12.14002        -0.59750
C          9.79032         9.92435        -0.23093
C          9.83617        12.84678        -0.22971
C          8.54507        14.97272         0.04909
C          8.55121        16.39014         0.29469
C          9.81708        14.25513         0.03893
C          9.76229        17.07011         0.55259
C          8.57351        19.21528         0.43534
C          9.78563        18.49723         0.49992
C         11.04720         2.10292        -0.29760
C         11.01782         3.52685        -0.40313
C         12.28316         1.42131        -0.20417
C         12.26481         4.26521        -0.34159
C         10.97624         6.42322        -0.22481
C         11.05425         7.74226        -0.98890
C         12.25978         5.65071        -0.29177
C         12.32850         8.50382        -0.68190
C         10.99883        10.70886        -0.70833
C         11.05720        12.13701        -0.29450
C         12.29040         9.97711        -0.88169
C         12.28049        12.75527        -0.00681
C         10.99697        14.89321         0.43503
C         10.95496        16.27553         1.02307
C         12.24993        14.09447         0.70116
C         12.34229        17.08514         0.99323
C         11.04211        19.17049         0.38181
C         12.25415        18.47373         0.37720
C         13.51706         2.11684        -0.25911
C         13.51774         3.54957        -0.32354
C         14.74857         1.42205        -0.24248
C         14.74817         4.26459        -0.42924
C         13.51791         6.40644         0.03625
C         13.48204         7.86003        -0.38380
C         14.76722         5.67988        -0.39384
C         14.78624         8.60794        -0.19669
C         13.52709        10.73575        -0.66588
C         13.52512        12.06182        -0.24379
C         14.76844         9.94983        -0.95373
C         14.79388        12.75322        -0.07722
C         13.51394        14.89790         0.45293
C         13.51273        16.27203         0.44892
C         14.80417        14.12099         0.57403
C         14.74116        17.02218         0.29173
C         13.46339        19.12500         0.09535
C         14.72209        18.45081         0.16566
C         15.98216         2.10503        -0.36674
C         15.98726         3.53300        -0.51895
C         17.21359         1.40586        -0.35435
C         17.21627         4.21203        -0.70528
C         15.95928         6.41609        -0.67732
C         15.98181         7.79675        -0.66289
C         17.20692         5.66880        -1.12141
C         17.22139         8.53310        -1.13278
C         16.04436        10.69874        -0.69091
C         15.99644        12.11453        -0.34089
C         17.21118        10.00440        -0.76885
C         17.25410        12.82174        -0.20420
C         16.03376        14.91775         0.25214
C         15.99689        16.34471         0.24462
C         17.25827        14.23086         0.06327
C         17.20414        17.08766         0.21322
C         15.93521        19.16323         0.04927
C         17.19254        18.50753         0.12663
C         18.43911         2.08334        -0.46740
C         18.42468         3.50513        -0.66943
C         19.67944         1.37345        -0.34619
C         19.70654         4.22768        -0.81860
C         18.47798         6.40151        -0.72362
C         18.47383         7.79862        -0.68550
C         19.69778         5.69493        -0.60932
C         19.68491         8.50461        -0.39779
C         18.52334        10.72265        -0.83824
C         18.47833        12.14662        -0.33486
C         19.68623         9.91394        -0.34052
C         19.68410        12.85026        -0.15904
C         18.48917        14.94391         0.08980
C         18.48642        16.37635         0.53513
C         19.70884        14.26211        -0.01835
C         19.73200        17.12068         0.14971
C         18.43008        19.21717         0.11802
C         19.68563        18.55205         0.11104
C         20.91593         2.01513        -0.33534
C         20.99483         3.46353        -0.61110
C         22.14308         1.34463        -0.14088
C         22.22352         4.18012        -0.21181
C         20.91440         6.38078        -0.35156
C         20.90115         7.76732        -0.18459
C         22.23742         5.65722        -0.55399
C         22.13622         8.51587         0.28714
C         20.92284        10.62296         0.00036
C         20.93269        12.11518         0.05385
C         22.21497         9.91607        -0.32152
C         22.22345        12.82724         0.02027
C         20.98160        14.97150        -0.01719
C         20.94869        16.43253        -0.00121
C         22.18341        14.26120        -0.05835
C         22.15941        17.17406        -0.05116
C         20.90818        19.27250         0.04886
C         22.15080        18.60813         0.03258
C         23.37175         2.01462         0.06492
C         23.35952         3.49637         0.18032
C         24.54881         1.22845        -0.04145
C         24.57818         4.27758         0.45855
C         23.43176         6.40137        -0.02014
C         23.43391         7.78190         0.09028
C         24.63493         5.68326         0.20528
C         24.66130         8.51664         0.16072
C         23.45012        10.68057         0.11650
C         23.40627        12.11377         0.20336
C         24.64709         9.97695         0.21643
C         24.63591        12.83733         0.70532
C         23.48603        14.95193        -0.15241
C         23.44571        16.50475        -0.18952
C         24.67080        14.29386         0.32770
C         24.63472        17.23226         0.39642
C         23.38650        19.32798        -0.07865
C         24.63642        18.68193        -0.02201
C         25.80257         1.61960         0.51046
C         25.72962         3.73240         1.02851
C         27.09553         1.39141         0.09113
C         27.01356         4.34113         0.92037
C         25.87106         6.39492         0.29209
C         25.87293         7.81348         0.14592
C         27.08532         5.66915         0.49618
C         27.15999         8.53441        -0.16876
C         25.91715        10.69209         0.29284
C         25.92430        12.10810         0.35855
C         27.14013         9.99834         0.17696
C         27.13990        12.80889         0.26216
C         25.95392        15.03626         0.59452
C         25.93806        16.49987         0.19788
C         27.11080        14.28408        -0.08454
C         27.10158        17.17507         0.02756
C         25.85546        19.32487        -0.24501
C         27.11404        18.62982        -0.20105
C         28.25976         2.02738         0.73872
C         28.22860         3.52794         1.18264
C         29.59020         1.47065         0.44877
C         29.53423         4.29125         1.41780
C         28.40633         6.32121         0.17558
C         28.39519         7.82174         0.30796
C         29.58637         5.68906         0.84646
C         29.60224         8.52270         0.42144
C         28.36797        10.69468         0.26941
C         28.36050        12.11113         0.29310
C         29.62358         9.96339         0.32013
C         29.64266        12.86172         0.54976
C         28.42917        14.98628         0.07492
C         28.42545        16.48233         0.27995
C         29.61668        14.31324         0.09797
C         29.54903        17.15078        -0.50265
C         28.30242        19.30984        -0.36297
C         29.64858        18.65499        -0.17153
C         30.75476         2.16581         0.66301
C         30.78975         3.53063         1.04734
C         32.00146         4.24827         1.12768
C         30.79832         6.37054         0.88742
C         30.84186         7.80112         0.59886
C         32.00456         5.63471         1.17454
C         32.04528         8.51720         0.51622
C         30.86085        10.64954         0.26554
C         30.89131        12.10418         0.17518
C         32.05919         9.89717         0.32837
C         32.04343        12.82703        -0.03343
C         30.89094        15.00899        -0.07583
C         30.88699        16.43813        -0.38054
C         32.05037        14.25195        -0.11711
C         31.99127        17.14543        -0.77199
C         30.76855        19.25939        -0.99033
C         31.88709        18.52963        -1.19830
O         23.67730        15.76150        -1.39744
O         12.72557        17.33430         2.31985
O         20.85192        11.27986         1.30125
O         25.63920         2.47805         1.62779
O         20.51573         3.80528        -1.99078
O         11.46175        10.40173        -2.05499
O         28.07888         2.45494         2.13504
O          7.99736        12.66652        -1.84705
O          6.55489         8.24072        -2.08063
O          7.17424         4.78737        -2.20923
O          7.21539         0.79391        -1.95531
H          7.24257         1.58165        -2.53776
O         12.21700        13.77316         2.15118
H         11.72756        14.52863         2.58212
O         18.81066        10.84463        -2.28742
H         18.46609        10.02125        -2.71582
O         28.65711        16.63336         1.71950
H         27.97425        16.07657         2.16842
O         28.57922         6.06552        -1.30289
H         29.48381         6.37206        -1.53428
O         29.70806        12.97621         2.02313
H         30.54565        13.43954         2.23888
O         24.55610        12.76820         2.17572
H         25.29828        13.32205         2.51829
O         22.44378         5.69959        -2.01106
H         21.78348         5.07157        -2.40167
O         11.08293         7.44934        -2.40196
H         11.15831         8.30903        -2.87316
O         13.57927         6.48039         1.52992
H         12.67512         6.76544         1.81090
O         24.41615        17.20281         1.86038
H         24.77898        18.03419         2.23412
O         14.95044         8.88600         1.21369
H         14.70672         8.05599         1.69346
O         30.02983        18.86387         1.21477
H         29.50214        18.23544         1.76407
O         14.70976         9.58535        -2.35910
H         14.71993        10.40610        -2.89355
O         26.19966        15.02012         2.04617
H         25.52880        15.64126         2.42791
O          2.19071        14.36550        -1.84929
H          2.22291        15.31086        -2.10892
O         14.92452        13.83760         2.02367
H         14.00137        13.67697         2.35837
O         18.51742        16.32188         2.01999
H         17.71584        15.83361         2.31015
O         29.59200         4.45893         2.87962
H         29.29605         3.60284         3.26620
O         27.25343         8.48249        -1.65005
H         27.49597         7.54910        -1.87547
O         29.15455        17.02855        -1.89362
H         29.83729        17.47838        -2.43561
O         10.78883         6.81996         1.19885
H         10.53809         6.00983         1.69395
O          9.93174         9.80606         1.23175
H         10.25601         8.89715         1.43358
O         17.18093         5.68119        -2.59301
H         17.93577         5.13817        -2.90823
O          3.02657         1.77849        -1.21440
H          3.65706         2.15327        -1.86694
O         21.98625         8.69684         1.72054
H         22.00733         7.81713         2.15024
O         22.26034         9.79514        -1.76189
H         23.04601         9.25988        -2.00360
O         26.79220        14.35156        -1.50527
H         27.59296        14.11426        -2.01766
O         10.71776        16.01645         2.44657
H         11.40162        16.61178         2.90827
O         17.26678         8.48508        -2.60151
H         17.16391         7.53262        -2.86284
H          0.91905         1.69397         2.33571
H          0.71288         4.10401         1.85494
H          2.70783         0.32919         1.28740
H          0.46402         5.90623         1.21784
H          0.36850         8.32467         0.97243
H          0.26218        10.19655         0.53485
H          0.20915        12.61269         0.24157
H          0.14883        14.54302         0.18375
H          0.24687        16.92535         0.69256
H          1.47498        19.06364         0.69211
H          4.97170         0.25853         0.20154
H          3.61807        20.32173         0.70294
H          7.38452         0.33023         0.04720
H          6.10000        20.33241         0.59236
H          9.83045         0.29306        -0.20002
H          8.59834        20.31470         0.42747
H         12.28700         0.32381        -0.13323
H         11.04001        20.26047         0.22167
H         14.74793         0.32543        -0.15515
H         13.44865        20.18363        -0.21112
H         17.20925         0.31293        -0.23122
H         15.90498        20.25868        -0.04809
H         19.64018         0.28757        -0.17412
H         18.41035        20.31647         0.08118
H         22.14134         0.24433        -0.12710
H         20.88309        20.37231         0.02997
H         24.46053         0.24682        -0.53262
H         23.35032        20.41110        -0.26922
H         27.28351         0.76782        -0.79397
H         25.86224        20.40468        -0.45886
H         29.63691         0.46450         0.00704
H         28.27389        20.40295        -0.49969
H         31.71445         1.67261         0.44243
H         32.95589         3.70042         1.09753
H         32.96200         6.16403         1.26671
H         33.00700         7.99391         0.60312
H         33.02990        10.40860         0.28020
H         33.00090        12.31241        -0.19834
H         33.01690        14.74177        -0.29984
H         32.98398        16.67403        -0.81317
H         30.71557        20.31543        -1.29487
H         32.75768        18.97604        -1.70195
