         490
 CSIRO Nanostructure Databank - Neutral Graphene Oxide Data Set
C         38.38205        50.22855        -1.44046
C         37.57550        50.97270        -2.32366
C         37.77230        52.93988        -0.91602
C         37.29079        52.33119        -2.04313
C         39.99222        48.58440         0.30809
C         39.91106        50.06694         0.55185
C         38.87141        50.78023        -0.27361
C         39.98971        52.93221         0.25661
C         38.62790        52.22537         0.09084
C         40.00622        54.38710         0.33537
C         42.40985        48.65921        -0.34620
C         41.11854        47.94989        -0.02986
C         42.40122        50.11831         0.06796
C         41.22585        50.78892         0.29904
C         42.46127        53.00862         0.55105
C         41.17026        52.23809         0.34934
C         42.43693        54.37089        -0.14490
C         41.14739        55.09138         0.18234
C         44.76682        45.90625         0.95891
C         43.64466        46.58825         0.58789
C         44.86935        48.64614         0.07720
C         43.67051        47.94886         0.12205
C         44.89804        50.10212        -0.03070
C         43.66849        50.83806         0.01904
C         44.92424        52.94544         0.10455
C         43.69898        52.23270         0.15781
C         44.94320        54.38980         0.18250
C         43.72332        55.12416         0.15985
C         44.99459        57.18747         0.36250
C         43.77077        56.51026         0.27406
C         47.23564        44.84787         2.18599
C         47.33293        45.92032         1.28572
C         46.10119        46.41982         0.63747
C         47.41102        48.59556         0.33193
C         46.13438        47.90033         0.17179
C         47.36854        50.07002         0.33112
C         46.11795        50.79926         0.00748
C         47.39330        52.95648         0.03914
C         46.14783        52.22859         0.01395
C         47.42134        54.33147         0.20195
C         46.19022        55.07531         0.25791
C         47.48989        57.22475         0.21717
C         46.21315        56.50323         0.31040
C         47.50907        58.63615         0.07969
C         49.60796        45.01197         2.56439
C         48.36848        44.42557         2.85920
C         49.80756        46.02565         1.60765
C         48.59087        46.55755         1.04781
C         49.90841        48.54275         0.15980
C         48.59050        47.90126         0.51223
C         49.91852        50.04492         0.27984
C         48.65704        50.80893         0.32608
C         49.94374        52.90812        -0.10353
C         48.64329        52.18198        -0.30764
C         49.89894        54.39040        -0.35304
C         48.74709        55.03747         0.44734
C         49.94042        57.23423         0.04678
C         48.71081        56.53129         0.19648
C         49.93980        58.65273        -0.06923
C         48.69577        59.32787        -0.05038
C         52.52307        41.66341         2.08049
C         51.50954        42.40900         2.67123
C         52.51363        44.50789         1.83299
C         51.53519        43.80658         2.56787
C         52.41602        45.91973         1.45068
C         51.14995        46.60568         1.28851
C         52.37244        48.60984         0.42818
C         51.15675        47.89956         0.72179
C         52.33100        49.98452         0.09239
C         51.10105        50.73209         0.14821
C         52.38491        52.88746        -0.11793
C         51.10504        52.19615         0.01546
C         52.37474        54.34178        -0.06850
C         51.21105        55.07813        -0.05172
C         52.40559        57.25127         0.05521
C         51.20722        56.52734         0.03912
C         52.42694        58.68698        -0.09410
C         51.18834        59.38213        -0.18966
C         52.41214        61.47569        -0.46482
C         51.21711        60.78343        -0.38165
C         54.83115        40.18378         0.98793
C         54.85707        41.57656         1.17052
C         53.67205        42.32591         1.58690
C         54.96999        44.47664         1.57236
C         53.67274        43.74048         1.53607
C         54.88815        45.87519         1.02780
C         53.64406        46.54945         1.00235
C         54.84799        48.58923         0.25766
C         53.64075        47.92666         0.54678
C         54.85251        49.96103        -0.27471
C         53.53055        50.70243        -0.33641
C         54.80302        52.85057        -0.81592
C         53.54746        52.17914        -0.30742
C         54.88577        54.31811        -0.45518
C         53.68118        55.00816         0.06103
C         54.90242        57.21905        -0.24932
C         53.68399        56.52128         0.13539
C         54.93433        58.66990        -0.07540
C         53.65681        59.41987        -0.15091
C         54.92580        61.61205        -0.41300
C         53.65690        60.81668        -0.34184
C         54.94758        62.98540        -0.99005
C         57.20514        40.15288         0.43702
C         55.97649        39.48138         0.62170
C         57.27294        41.54053         0.59148
C         56.08934        42.28263         0.93309
C         57.38660        44.41848         1.05989
C         56.12245        43.68562         1.04697
C         57.35890        45.86332         0.86986
C         56.13414        46.53047         0.73874
C         57.31614        48.62527         0.11375
C         56.12074        47.94460         0.39014
C         57.34281        50.03193        -0.15500
C         56.11055        50.73728        -0.25800
C         57.31293        52.81563        -0.65335
C         56.09460        52.12065        -0.48581
C         57.27153        54.24466        -1.04532
C         56.03019        55.00092        -0.72935
C         57.34072        57.23296        -1.03641
C         56.05866        56.48378        -0.72828
C         57.44356        58.66631        -0.70446
C         56.24696        59.39279        -0.23814
C         57.45745        61.50203        -0.96989
C         56.24297        60.88335        -0.40228
C         57.38456        62.85569        -1.63514
C         56.07209        63.57077        -1.42978
C         60.18120        37.85738         1.57588
C         59.24873        38.99127         1.37789
C         59.76705        40.04934         0.33866
C         58.43380        39.34693         0.14522
C         59.82501        41.50315         0.78773
C         58.57081        42.25298         0.26384
C         59.90091        44.40311         0.45972
C         58.65610        43.66856         0.78504
C         59.89319        45.78147         0.44163
C         58.67157        46.60872         0.83333
C         59.85652        48.63736         0.00244
C         58.58266        47.82598        -0.08335
C         59.83288        50.02461        -0.22221
C         58.57947        50.72720        -0.35337
C         59.79195        52.87657        -0.73991
C         58.55315        52.12852        -0.63877
C         59.80213        54.25345        -0.76383
C         58.59126        54.99788        -1.14303
C         59.85639        57.22310        -0.72970
C         58.66761        56.51894        -1.33316
C         59.89985        58.61064        -0.85724
C         58.64135        59.34132        -0.84720
C         59.91965        61.43930        -1.19796
C         58.65336        60.79091        -0.96480
C         59.90851        62.89628        -1.47767
C         58.64553        63.64939        -1.35581
C         59.89237        65.72794        -0.98370
C         58.68179        65.01396        -1.21041
C         62.63911        35.85369         1.44305
C         62.46972        37.07025         0.76393
C         61.10900        37.58531         0.62330
C         62.23298        40.05015        -0.15108
C         60.98063        39.53219        -0.30597
C         62.29263        41.49196         0.07435
C         61.10255        42.21424         0.32814
C         62.35886        44.32143         0.15925
C         61.11958        43.63174         0.29104
C         62.36309        45.77876         0.10795
C         61.10921        46.50775         0.19707
C         62.37972        48.66306         0.17117
C         61.07271        47.91644         0.09975
C         62.28761        50.08482        -0.32221
C         61.09426        50.73174        -0.42161
C         62.33438        52.91500        -0.55380
C         61.09119        52.14526        -0.96652
C         62.27619        54.27646        -0.24677
C         61.00709        54.97410        -0.29484
C         62.34228        57.18920        -0.29210
C         61.03495        56.50073        -0.27329
C         62.36782        58.59152        -0.60439
C         61.14150        59.32428        -0.81836
C         62.41511        61.46075        -1.15288
C         61.12298        60.73652        -1.05263
C         62.43712        62.93623        -0.95070
C         61.22109        63.67990        -1.31894
C         62.35577        65.77252        -0.58779
C         61.13189        65.10265        -0.94780
C         62.35143        67.19776        -0.32663
C         64.97846        35.84956         0.85978
C         63.88154        35.24577         1.49605
C         64.83331        37.13936         0.28183
C         63.57679        37.79788         0.23193
C         64.73944        40.01379        -0.38022
C         63.45627        39.18926        -0.51799
C         64.75748        41.37806        -0.23036
C         63.53667        42.16958        -0.04825
C         64.86620        44.31405         0.21745
C         63.56189        43.57832         0.04167
C         64.80800        45.76724        -0.19061
C         63.55717        46.46405        -0.12613
C         64.78642        48.67428        -0.35533
C         63.49845        47.91566        -0.56994
C         64.80687        50.03705        -0.40467
C         63.55332        50.76118        -0.81792
C         64.77151        52.92913        -0.17228
C         63.55436        52.22617        -0.48226
C         64.74990        54.27861         0.15565
C         63.44963        55.00604         0.36208
C         64.78804        57.14693        -0.04975
C         63.52592        56.47585        -0.04705
C         64.81234        58.56479        -0.27338
C         63.61463        59.25646        -0.57387
C         64.87146        61.43619        -0.42517
C         63.67965        60.69984        -0.87032
C         64.77011        62.87957        -0.01199
C         63.56098        63.60798        -0.54786
C         64.81887        65.74765        -0.31401
C         63.56701        65.05874        -0.47828
C         64.84078        67.26617        -0.42279
C         63.49458        67.89401        -0.18856
C         67.54214        32.96584         0.97730
C         66.28392        33.76472         0.92328
C         67.52024        35.92200         0.79055
C         66.25158        35.10824         0.82603
C         67.38119        37.02553        -0.28552
C         66.03555        37.76847        -0.33325
C         67.28954        39.97853        -0.69995
C         66.00034        39.25068        -0.61185
C         67.20237        41.46712        -0.90500
C         66.09735        42.09368        -0.03648
C         67.23944        44.27300        -0.60418
C         66.08903        43.59046        -0.28290
C         67.25424        45.77269        -0.82236
C         65.99058        46.44939        -0.36471
C         67.32528        48.64695        -0.20140
C         66.02057        47.90838        -0.15314
C         67.28788        50.10906        -0.35467
C         66.04463        50.79469        -0.29467
C         67.27093        52.91172        -0.03857
C         66.02941        52.19948        -0.20473
C         67.26348        54.26372         0.30180
C         65.98665        54.99667         0.61647
C         67.24811        57.14316         0.13290
C         66.02634        56.45639         0.16723
C         67.26775        58.58548        -0.01330
C         66.05294        59.28484        -0.18671
C         67.27395        61.46155         0.04413
C         66.04913        60.73255        -0.19302
C         67.26815        62.89225        -0.04040
C         66.07757        63.62978        -0.15699
C         67.32185        65.89575        -0.25485
C         66.03657        65.05995        -0.21232
C         67.16884        67.17937         0.53976
C         65.93703        67.84365         0.46282
C         66.83718        69.66006         1.79664
C         65.77520        69.07110         1.13209
C         70.09870        31.59909         0.72203
C         70.01197        32.98612         0.41007
C         68.79451        33.72388         0.60822
C         69.93293        35.77368        -0.06269
C         68.77293        35.10783         0.44474
C         69.92369        37.24927        -0.26371
C         68.59777        37.94503        -0.23334
C         69.74420        40.02984        -1.06884
C         68.50001        39.34543        -0.69834
C         69.69455        41.38637        -1.30603
C         68.56437        42.13253        -0.64170
C         69.66118        44.33044        -1.15461
C         68.49389        43.61488        -0.90195
C         69.75229        45.73931        -0.88997
C         68.55307        46.41273        -0.26242
C         69.72976        48.59758        -0.71932
C         68.57631        47.91423        -0.48136
C         69.73070        50.09662        -0.96893
C         68.49855        50.81559        -0.47067
C         69.77900        52.90091        -0.14309
C         68.51686        52.19945        -0.23979
C         69.78525        54.27055         0.19920
C         68.53240        54.96687         0.67653
C         69.70881        57.12219         0.32844
C         68.51331        56.44685         0.32180
C         69.80264        58.59499         0.01223
C         68.48728        59.32261         0.11566
C         69.72661        61.44101         0.52323
C         68.48802        60.72621         0.20589
C         69.73608        62.85171         0.56714
C         68.56922        63.59682         0.04729
C         69.68486        65.75731         0.83799
C         68.58748        65.10508         0.08467
C         69.54615        67.09080         1.30988
C         68.26769        67.77603         1.21154
C         69.24486        69.72684         2.43708
C         68.10887        69.05116         1.82355
C         69.12605        71.02670         2.98196
C         72.41266        31.55061         0.01995
C         71.27227        30.89777         0.53153
C         72.36496        32.89893        -0.27586
C         71.17525        33.65193        -0.08299
C         72.23716        35.77267        -0.91615
C         71.10837        35.06408        -0.35795
C         72.21287        37.11097        -1.19859
C         71.06008        37.92126        -0.93805
C         72.10191        40.00583        -1.81990
C         70.96968        39.27316        -1.28623
C         72.05544        41.33157        -2.10276
C         70.82810        42.11557        -1.89168
C         72.08799        44.40439        -1.84136
C         70.82919        43.64485        -1.77196
C         72.12269        45.72040        -1.52513
C         70.94190        46.43842        -1.07950
C         72.16933        48.60654        -0.82221
C         70.99159        47.87908        -0.87750
C         72.17839        50.01449        -0.59396
C         71.02490        50.77108        -0.57088
C         72.21981        52.93178        -0.20713
C         71.01485        52.20104        -0.32150
C         72.21468        54.29076         0.06067
C         70.99944        54.97612         0.28848
C         72.08143        57.12045         0.93055
C         70.96518        56.41312         0.53356
C         72.02989        58.53258         1.12638
C         70.93767        59.27636         0.74807
C         72.06682        61.44894         1.20541
C         70.91029        60.72468         0.84582
C         72.06301        62.83190         1.25397
C         70.90118        63.56805         0.93485
C         71.95129        65.69545         1.70833
C         70.85735        65.01928         1.11677
C         71.85598        67.02050         2.08222
C         70.64248        67.73265         1.94630
C         71.61257        69.77173         3.03037
C         70.51086        69.08515         2.46780
C         71.47240        71.04849         3.55404
C         70.21933        71.67819         3.53417
O         55.81673        58.99282         1.10653
O         69.44328        37.93423         0.97553
O         54.13535        50.12325        -1.57159
O         66.73966        48.23323         1.11502
O         60.90116        38.16583        -0.66412
O         53.87230        55.67084         1.35677
O         57.92267        54.43678        -2.33420
O         60.70301        63.31539        -2.64216
O         63.26431        61.02887        -2.27389
O         70.46018        42.97686        -3.03978
O         50.65335        44.53715         3.36121
O         67.37857        31.79791         0.09231
O         46.23829        46.77995        -0.76416
O         60.73078        55.72571         0.98110
O         69.01061        64.38511        -1.13166
O         47.94732        50.65833         1.59550
O         58.28445        43.87745         2.18011
O         55.74317        61.56164         0.81181
O         65.82373        38.25269        -1.69948
O         56.40620        57.00420        -2.14739
O         63.20832        47.88857        -1.98807
H         63.33793        48.81029        -2.33739
O         39.59921        50.25187         1.96967
H         40.28817        49.79060         2.49209
O         59.81935        41.52737         2.22983
H         59.52330        42.41311         2.53829
O         68.92605        42.03317         0.76711
H         68.10030        42.11644         1.30958
O         67.48474        36.31244        -1.54715
H         66.98719        36.84261        -2.21426
O         42.59150        53.27995         1.97543
H         42.64984        52.42235         2.44498
O         58.89949        56.72937        -2.75382
H         58.08444        56.41390        -3.21138
O         69.65697        50.24605        -2.43408
H         70.44319        49.79619        -2.81082
O         64.52140        62.82191         1.45613
H         65.30672        62.40033         1.86731
O         58.67861        42.34787        -1.17774
H         58.44795        41.47752        -1.56534
O         68.60598        54.90199         2.14690
H         67.68637        55.03945         2.48649
O         49.99584        48.29710        -1.30519
H         50.87397        48.62189        -1.60271
O         65.05684        44.35437         1.69481
H         64.32177        44.88506         2.07260
O         42.48722        48.66453        -1.80937
H         43.36349        49.02613        -2.06054
O         67.30850        46.01212        -2.25961
H         66.58098        45.51108        -2.68516
O         58.25684        38.42424        -0.89237
H         59.12216        37.97446        -1.04570
O         48.56589        51.96726        -1.76826
H         47.68166        51.59391        -1.97509
O         61.17188        52.02458        -2.43806
H         60.29994        51.71334        -2.76355
O         65.15802        67.61906        -1.80100
H         66.04662        67.22767        -2.00761
O         66.80251        41.73268        -2.26815
H         67.41399        41.25931        -2.86995
O         42.44323        54.11593        -1.57766
H         42.41234        54.97865        -2.04067
O         37.95779        52.33388         1.37874
H         38.41598        51.70874         1.98885
O         67.63662        36.47739         2.11257
H         68.45452        37.03477         2.13192
O         70.17082        58.67930        -1.41655
H         71.04046        58.23613        -1.51537
O         55.25909        44.64945         3.03137
H         55.38002        43.75307         3.41231
O         54.69092        52.79961        -2.27399
H         54.54459        51.84953        -2.50237
O         58.92454        47.08513         2.18633
H         58.78846        46.32594         2.79357
O         66.38819        41.91194         1.38496
H         65.91131        42.63505         1.86325
O         67.49661        66.32616        -1.64213
H         67.96747        65.58673        -2.09894
O         63.31533        38.86004        -1.91908
H         62.50258        38.31459        -2.00345
O         67.00400        32.31769        -1.21069
H         67.83018        32.76498        -1.51966
O         49.07415        54.83552         1.84908
H         48.37493        55.25495         2.39235
O         57.42008        62.58958        -3.08381
H         58.35371        62.42849        -3.34265
O         65.90113        55.06711         2.09725
H         64.93600        55.13352         2.32434
O         63.20591        55.03559         1.83147
H         62.27819        55.37528         1.93630
O         62.77081        48.69618         1.57743
H         62.03113        49.08894         2.08701
O         68.60254        46.18129         1.16407
H         67.93841        46.78957         1.57284
O         58.51011        47.29526        -1.44162
H         58.44009        48.05052        -2.06197
O         49.62061        54.59485        -1.76682
H         49.27454        53.74691        -2.13404
O         63.51955        50.63167        -2.28938
H         62.73197        51.15117        -2.60501
H         38.62776        49.18398        -1.68622
H         37.17891        50.50342        -3.23340
H         37.50445        53.98511        -0.70440
H         36.65789        52.89865        -2.74115
H         39.07044        48.00742         0.48275
H         39.05330        54.90874         0.50700
H         41.08437        46.86428        -0.20669
H         41.11209        56.19072         0.19339
H         44.65757        44.93907         1.46899
H         42.66747        46.12016         0.77236
H         44.97039        58.28216         0.43700
H         42.84630        57.10385         0.27613
H         46.27116        44.36549         2.38797
H         46.57098        59.20580         0.07792
H         48.31966        43.63164         3.61463
H         48.65656        60.42146        -0.13604
H         52.48228        40.56716         2.12611
H         50.69733        41.92024         3.22448
H         52.38061        62.56310        -0.61297
H         50.28108        61.34967        -0.47193
H         53.89516        39.62627         1.12892
H         54.01748        63.57366        -0.97656
H         55.93442        38.39405         0.47531
H         56.00928        64.59655        -1.82395
H         60.32302        37.48969         2.60097
H         58.87408        39.43096         2.31696
H         59.80704        66.80166        -0.77159
H         57.74271        65.58485        -1.18641
H         61.76002        35.36465         1.88519
H         61.38988        67.72293        -0.24701
H         63.99731        34.28309         2.01056
H         63.43972        68.98417        -0.06460
H         67.65533        32.51382         2.00166
H         65.35230        33.17977         0.93925
H         66.67253        70.62792         2.28694
H         64.81171        69.59594         1.11734
H         69.22512        31.07569         1.13086
H         68.15975        71.54758         2.96949
H         73.34370        30.98689        -0.13148
H         71.32195        29.82933         0.78313
H         73.27200        33.38816        -0.65478
H         73.15250        35.21347        -1.14990
H         73.10349        37.56645        -1.65254
H         73.04270        39.46675        -1.99826
H         72.93484        41.83021        -2.53416
H         72.99453        43.90062        -2.20487
H         73.07061        46.26779        -1.62309
H         73.14036        48.09565        -0.87388
H         73.15536        50.48523        -0.41402
H         73.18421        52.42804        -0.35678
H         73.16912        54.83360         0.10398
H         73.02027        56.59752         1.15778
H         72.90763        59.01363         1.57956
H         72.99993        60.91934         1.43767
H         72.99354        63.34455         1.52775
H         72.89530        65.16890         1.89595
H         72.73149        67.49676         2.54132
H         72.60508        69.30297         3.05378
H         72.34205        71.56515         3.98294
H         70.10433        72.68913         3.94891
