         234
 CSIRO Nanostructure Databank - Neutral Graphene Oxide Data Set
C          1.31034         2.07173        -1.13400
C          1.26228         3.49571        -0.95931
C          2.44377         1.36302        -0.84502
C          2.27996         4.18048        -0.35117
C          1.06405         6.46507        -0.34433
C          1.07317         7.81100        -0.36080
C          2.31773         5.67314        -0.37235
C          2.35348         8.56595        -0.41774
C          1.18771        10.88141        -0.53526
C          1.18704        12.19571        -0.18504
C          2.41336        10.07885        -0.46410
C          2.38244        12.86573         0.24876
C          1.11392        15.09444         0.18982
C          1.17788        16.23195        -0.50966
C          2.31993        14.33392         0.68386
C          2.46776        16.81274        -1.02525
C          2.48679        18.32226        -1.06780
C          3.59829         2.01630        -0.28920
C          3.44985         3.42041         0.14229
C          4.81523         1.37404        -0.16435
C          4.73665         4.15703         0.58806
C          3.58301         6.39864        -0.02260
C          3.53510         7.89805         0.28184
C          4.73649         5.66654         0.60775
C          4.88995         8.54646        -0.13380
C          3.65190        10.74804         0.01534
C          3.57679        12.15001         0.35192
C          4.84826        10.04022         0.14851
C          4.82916        12.81239         0.77205
C          3.61703        15.03799         0.33642
C          3.67451        16.25347        -0.30466
C          4.85449        14.37620         0.74400
C          4.91606        16.98076        -0.37714
C          3.64478        19.01145        -1.02246
C          4.92621        18.35746        -0.76753
C          6.03487         2.07971         0.12135
C          6.00435         3.45463         0.41725
C          7.28266         1.37867        -0.01322
C          7.27623         4.25153         0.30959
C          6.01259         6.41912         0.84324
C          6.09450         7.85887         0.49366
C          7.28944         5.60559         1.09963
C          7.29024         8.53249         0.58105
C          6.08951        10.71568         0.40049
C          6.10988        12.12118         0.59046
C          7.32387         9.98660         0.45051
C          7.33108        12.83929         0.63923
C          6.13581        15.00758         0.45789
C          6.13649        16.35064        -0.00742
C          7.35056        14.28115         0.57632
C          7.37065        17.05821        -0.11633
C          6.12712        19.06064        -0.81633
C          7.37376        18.43128        -0.51229
C          8.51948         2.00662         0.15483
C          8.52866         3.39572         0.77685
C          9.74955         1.33999        -0.00971
C          9.74571         4.20658         0.36175
C          8.56031         6.37869         0.77512
C          8.55190         7.80573         0.73895
C          9.77119         5.65633         0.64825
C          9.76094         8.51288         0.62336
C          8.53953        10.68488         0.49106
C          8.56790        12.12432         0.52248
C          9.79622         9.95210         0.53778
C          9.79142        12.83442         0.44697
C          8.58444        14.97699         0.45883
C          8.59304        16.39629         0.19361
C          9.81913        14.25083         0.45759
C          9.80405        17.11542         0.13873
C          8.60565        19.12065        -0.58322
C          9.82009        18.48134        -0.25978
C         11.01310         1.99140         0.10923
C         11.03265         3.47485         0.14243
C         12.22847         1.32827         0.01508
C         12.28965         4.19295         0.39566
C         11.01476         6.30520         0.53390
C         11.00972         7.76375         0.41592
C         12.25268         5.58574         0.54004
C         12.32228         8.50006         0.41497
C         10.99717        10.65008         0.54363
C         11.05653        12.08722         0.11115
C         12.26651         9.94240         0.76247
C         12.34163        12.82262         0.44273
C         11.06200        14.95692         0.39890
C         11.06559        16.45223         0.61360
C         12.29466        14.26722         0.39240
C         12.31515        17.11920         0.10134
C         11.07791        19.17969        -0.36780
C         12.29726        18.51862        -0.24259
C         13.49855         2.01015         0.08726
C         13.52801         3.45150         0.37602
C         14.66807         1.31243        -0.16401
C         14.74124         4.12319         0.44756
C         13.50554         6.31950         0.84257
C         13.58697         7.77594         0.67233
C         14.82301         5.55683         0.78022
C         14.79386         8.44322         0.68034
C         13.55888        10.68292         0.75795
C         13.55113        12.15116         0.56347
C         14.79236         9.90737         0.42606
C         14.82493        12.82368         0.58750
C         13.51413        14.99513         0.32747
C         13.50749        16.39822         0.10029
C         14.79872        14.29929         0.52943
C         14.72563        17.04870        -0.45077
C         13.56012        19.20702        -0.42892
C         14.75657        18.52879        -0.50797
C         15.99539         1.92326        -0.02394
C         16.01134         3.40459         0.29433
C         17.20456         1.31092        -0.63104
C         17.19628         4.21777        -0.11137
C         16.07523         6.32936         0.58210
C         16.07026         7.74681         0.66094
C         17.27639         5.64570         0.30571
C         17.31161         8.46595         0.59616
C         16.08291        10.66186         0.40094
C         16.04281        12.13820         0.54884
C         17.34411         9.91759         0.60527
C         17.31048        12.81900         0.50206
C         16.08073        15.00036         0.19119
C         16.01215        16.29670        -0.55068
C         17.35296        14.24240         0.22462
C         17.30727        17.03128        -0.93566
C         16.04463        19.17922        -0.51638
C         17.25209        18.50650        -0.55580
C         18.37081         2.00636        -0.77642
C         18.40005         3.48414        -0.57121
C         19.59194         1.42909        -1.30772
C         19.72499         4.13608        -0.36038
C         18.50193         6.34167         0.26023
C         18.52912         7.73377         0.48503
C         19.77411         5.59224         0.05208
C         19.83294         8.42997         0.63217
C         18.52693        10.64953         0.67174
C         18.50897        12.08739         0.58983
C         19.83104         9.93638         0.74110
C         19.76994        12.82917         0.78139
C         18.52662        14.95163         0.13597
C         18.59094        16.30426        -0.47580
C         19.77001        14.32572         0.64482
C         19.85492        17.11595        -0.32561
C         18.49631        19.21573        -0.44889
C         19.72833        18.59735        -0.35355
C         20.73686         2.15476        -1.48356
C         20.87671         3.52880        -1.05156
C         22.02408         4.27478        -1.19707
C         21.01012         6.32811        -0.27078
C         21.15668         7.77158         0.18344
C         22.08051         5.65121        -0.79568
C         21.87504         8.65182        -0.81999
C         21.03039        10.66973         0.25380
C         21.12140        12.08530         0.60405
C         21.90301        10.01817        -0.64543
C         22.29632        12.91845         0.27459
C         21.08308        15.07527         0.60769
C         21.08250        16.53253         0.27254
C         22.29815        14.26680         0.35897
C         22.16152        17.33639         0.49621
C         20.93071        19.35896        -0.13378
C         22.09466        18.75343         0.25035
O         19.57296        16.36479        -1.56753
O         15.57365        15.04213         1.57301
O         20.53751        12.36539         1.91782
O         11.70392         8.20200        -0.86500
O         20.33620        14.92242         1.86874
O          8.56046         3.19715         2.14708
O         17.52038         4.14222        -1.56067
O          5.03408         6.19319         1.93725
O          3.78767         3.61841         1.55545
O         19.96948         4.50336         1.03334
O         14.16780         5.85396         2.06387
O          3.30588         6.10797        -1.41131
O          2.62539         9.22305        -1.68431
O         19.97998         9.08689         1.94097
O         12.95579        10.26026         2.03238
O         10.22747         3.99314        -1.01488
O          4.77585        13.60974         1.99624
O         15.38486        10.24769        -0.86344
O         15.09595        16.30147        -1.69517
O         16.27062         2.43044         1.35271
O         17.38102        17.05145        -2.37791
H         16.45239        17.02801        -2.71094
O         11.08103        16.64480         2.08864
H         11.89152        16.20801         2.42891
O          2.18638        14.31570         2.13232
H          3.03998        13.97649         2.49973
O         22.04594         7.71763         1.33107
H         21.66224         8.32477         2.01143
O         11.08787        12.02891        -1.37475
H         10.30383        11.51619        -1.66793
O          3.29689         8.12533         1.68006
H          3.92119         7.54358         2.18857
O          7.42812         4.54638        -1.09283
H          8.37099         4.47958        -1.36766
O          2.58660        16.36803        -2.41894
H          3.38041        16.80031        -2.79906
O          5.10589         8.33824        -1.54919
H          4.28007         8.61211        -2.02231
O          7.32074         5.38539         2.51315
H          7.83503         4.53966         2.69510
H          0.44039         1.56718        -1.57600
H          0.38870         4.03937        -1.34688
H          2.49989         0.28573        -1.05823
H          0.10878         5.92281        -0.28804
H          0.12316         8.36560        -0.35360
H          0.27015        10.40677        -0.90908
H          0.25582        12.77340        -0.26097
H          0.13493        14.73733         0.54475
H          0.24944        16.75725        -0.78417
H          1.53792        18.84705        -1.25650
H          4.88788         0.31212        -0.44499
H          3.64609        20.10529        -1.14598
H          7.24720         0.30138        -0.24267
H          6.12152        20.12484        -1.09591
H          9.74152         0.28084        -0.31796
H          8.61596        20.17643        -0.89269
H         12.23921         0.23365        -0.10136
H         11.06404        20.24529        -0.64099
H         14.60649         0.26469        -0.49626
H         13.55068        20.30630        -0.48521
H         17.16093         0.24589        -0.90715
H         16.05656        20.27604        -0.41207
H         19.57297         0.36824        -1.59858
H         18.45393        20.31392        -0.37008
H         21.61849         1.66913        -1.92838
H         22.91229         3.82798        -1.66693
H         23.02766         6.18604        -0.95512
H         22.57706         8.18785        -1.52741
H         22.62426        10.62221        -1.21815
H         23.21960        12.39879        -0.02238
H         23.21623        14.81256         0.09326
H         23.09797        16.91386         0.88749
H         20.88665        20.45141        -0.25263
H         22.99581        19.35702         0.42560
