         470
 CSIRO Nanostructure Databank - Neutral Graphene Oxide Data Set
C         38.33774        50.31356         3.65387
C         37.40008        51.09370         4.25356
C         38.21599        53.13376         3.18820
C         37.34132        52.51235         4.02307
C         40.66898        48.79008         2.60193
C         40.46870        50.16207         2.23460
C         39.19419        50.83808         2.58008
C         40.27064        53.01075         1.64495
C         39.12244        52.36631         2.32608
C         40.21775        54.42940         1.36983
C         42.92328        48.74806         1.66294
C         41.81413        48.10037         2.28752
C         42.79770        50.19549         1.42895
C         41.47704        50.85556         1.56453
C         42.32821        52.85508         0.25045
C         41.33558        52.24369         1.18426
C         42.23963        54.32532        -0.03750
C         41.13471        55.06088         0.59602
C         45.40926        45.99515         1.34534
C         44.35621        46.73129         1.76918
C         45.09043        48.71396         0.44488
C         44.09477        48.07108         1.28650
C         45.01647        50.04939         0.14383
C         43.93372        50.87577         0.69423
C         44.85570        52.95254        -0.35774
C         43.65373        52.16816        -0.01082
C         44.80953        54.32212        -0.50168
C         43.52729        55.07293        -0.45579
C         44.81796        57.15756        -0.19599
C         43.62313        56.52522        -0.24841
C         47.56991        44.35190         0.15914
C         47.51204        45.72415        -0.05362
C         46.24992        46.45015         0.22174
C         47.23859        48.51893        -1.06746
C         46.10899        47.87162        -0.23696
C         47.34224        50.02578        -0.86853
C         46.00748        50.74847        -0.77288
C         47.34110        52.88996        -0.87475
C         46.16539        52.18794        -0.24643
C         47.24446        54.33675        -1.07261
C         46.03754        55.08208        -0.63494
C         47.32118        57.20528        -0.43629
C         46.06677        56.45869        -0.43778
C         47.41881        58.47895         0.09555
C         49.93084        44.31717        -0.44289
C         48.75441        43.64746        -0.05831
C         49.91597        45.72308        -0.63414
C         48.66663        46.44120        -0.51366
C         49.76716        48.47457        -1.37244
C         48.56876        47.79995        -0.87716
C         49.73043        50.00562        -1.55054
C         48.49329        50.72264        -1.12461
C         49.76457        52.92840        -1.33314
C         48.51287        52.19964        -1.13050
C         49.78887        54.30929        -1.22838
C         48.54590        55.09311        -1.24908
C         49.87667        57.20466        -0.54047
C         48.56209        56.55602        -0.90530
C         49.87292        58.48281         0.18822
C         48.66137        59.11479         0.37934
C         52.26937        41.37531        -0.78305
C         51.12630        42.15497        -0.69758
C         52.41378        44.24591        -0.71134
C         51.16749        43.56693        -0.62585
C         52.43129        45.71637        -0.83601
C         51.14531        46.43348        -0.91324
C         52.27137        48.63237        -1.35120
C         51.06861        47.80256        -1.19478
C         52.19764        50.04580        -1.79649
C         51.01566        50.75017        -1.65520
C         52.23480        52.87242        -1.54312
C         51.02427        52.19520        -1.55441
C         52.29222        54.25853        -1.05860
C         51.07288        55.11112        -1.29394
C         52.37795        57.07473        -0.37780
C         51.06986        56.30104        -0.30674
C         52.38179        58.44549         0.10002
C         51.16713        59.06294         0.52872
C         52.43780        60.95952         1.36912
C         51.22959        60.29429         1.20742
C         54.82887        40.04814         0.22367
C         54.76833        41.20108        -0.64693
C         53.53954        41.98235        -0.82770
C         54.87528        44.02913        -0.69276
C         53.58008        43.41612        -0.80384
C         54.93495        46.02969        -0.72119
C         53.60028        46.46660        -1.03890
C         54.76913        48.52066        -2.05450
C         53.58033        47.91534        -1.35148
C         54.76146        50.00676        -2.23355
C         53.45468        50.74432        -2.11999
C         54.80950        52.93640        -1.77206
C         53.49551        52.25480        -1.95581
C         54.84278        54.29470        -1.39218
C         53.59241        54.98104        -0.97266
C         54.78937        57.22414        -0.86920
C         53.53688        56.45459        -0.77999
C         54.85655        58.54266        -0.22528
C         53.62029        59.14953         0.22523
C         54.84924        61.25741         0.80000
C         53.62339        60.43457         0.83425
C         55.01497        62.41952         1.66790
C         57.29744        40.39002         0.54978
C         56.01707        39.60603         0.70370
C         57.27861        41.37089        -0.59764
C         56.00248        41.63969        -1.15442
C         57.27649        44.33682        -1.32086
C         56.01527        43.69908        -1.40192
C         57.33676        45.74511        -1.28477
C         56.12586        46.51975        -1.24752
C         57.28231        48.63832        -1.74838
C         56.09874        47.75442        -2.10579
C         57.23880        50.08135        -2.10071
C         56.04655        50.77822        -2.20987
C         57.25192        52.95905        -2.00438
C         56.02613        52.24073        -2.06858
C         57.28463        54.32157        -1.57799
C         56.06837        54.99333        -1.31219
C         57.34960        57.08310        -0.62464
C         56.10197        56.46187        -1.09946
C         57.35295        58.42934        -0.18201
C         56.10839        59.15076        -0.05745
C         57.42224        61.19281         0.70167
C         56.15609        60.57713         0.30465
C         57.42092        62.49938         1.20887
C         56.21431        63.06548         1.73777
C         59.83105        37.67653         1.34003
C         58.61400        38.31679         1.10732
C         59.77308        40.20916         0.08166
C         58.57332        39.58417         0.53450
C         59.74004        41.50448        -0.57037
C         58.47043        42.08055        -0.91729
C         59.77283        44.18536        -1.69834
C         58.45645        43.44827        -1.54718
C         59.74652        45.67356        -1.73306
C         58.59514        46.40769        -1.59463
C         59.82356        48.62978        -1.96982
C         58.59728        47.90293        -1.63328
C         59.82460        50.03482        -2.14687
C         58.52723        50.75540        -2.33810
C         59.81107        53.02462        -2.37981
C         58.49956        52.28404        -2.42060
C         59.78928        54.45827        -1.90252
C         58.52807        55.03551        -1.36173
C         59.81918        56.87690        -0.26085
C         58.54552        56.30866        -0.78088
C         59.82740        58.26557         0.32641
C         58.59020        59.08822         0.22957
C         59.86181        61.08546         1.22898
C         58.63124        60.42655         0.60947
C         59.89108        62.59834         1.02269
C         58.66530        63.26319         1.22935
C         59.79568        65.40844         1.20192
C         58.62788        64.66939         1.31661
C         62.31588        36.59426         2.32742
C         62.30273        37.70790         1.45507
C         61.03957        38.30430         1.02365
C         62.24416        40.14877        -0.12693
C         61.01722        39.55295         0.32795
C         62.22847        41.40418        -0.73606
C         60.99166        42.14366        -0.90736
C         62.27819        44.19950        -1.53509
C         61.03343        43.49297        -1.35898
C         62.29366        45.63695        -1.80491
C         61.02363        46.33932        -2.06877
C         62.34599        48.53696        -2.08215
C         61.05267        47.84937        -2.20523
C         62.32816        49.99840        -2.26805
C         61.03961        50.73276        -2.23441
C         62.32317        52.88019        -1.78828
C         61.09233        52.21194        -2.34820
C         62.38342        54.37752        -1.84540
C         61.09614        55.13697        -1.64055
C         62.40633        57.02322        -0.51649
C         61.12872        56.26627        -0.65417
C         62.40383        58.35917        -0.02091
C         61.16642        58.95804         0.52235
C         62.41227        61.23585         0.57450
C         61.19120        60.42010         0.88192
C         62.34792        62.71769         0.52594
C         61.07708        63.35702         0.82136
C         62.21317        65.60931         0.64285
C         61.01642        64.77648         0.91823
C         62.32892        66.94640         1.26488
C         64.74959        36.54338         2.29594
C         63.50678        36.02167         2.72284
C         64.76386        37.69544         1.45900
C         63.52566        38.25750         1.03540
C         64.83178        40.01327        -0.27350
C         63.50356        39.37748         0.06830
C         64.82496        41.38463        -0.87436
C         63.49225        42.04648        -1.17128
C         64.76285        44.10883        -1.78632
C         63.47939        43.49255        -1.44833
C         64.75828        45.65584        -1.88320
C         63.47195        46.36956        -1.79976
C         64.80060        48.52057        -1.71736
C         63.51785        47.82505        -1.89394
C         64.84977        49.93527        -1.70559
C         63.64442        50.71071        -2.06173
C         64.90942        52.83128        -1.50834
C         63.60828        52.13648        -1.63067
C         64.92224        54.25966        -1.32859
C         63.65801        55.04375        -1.45340
C         64.89081        56.99941        -0.41534
C         63.59740        56.39158        -0.86285
C         64.84484        58.49958        -0.46972
C         63.59620        59.15996        -0.19568
C         64.73218        61.38258        -0.35258
C         63.56347        60.56109        -0.04705
C         64.77280        62.80181         0.03116
C         63.51036        63.44381         0.28758
C         64.80557        65.63261         0.40606
C         63.51124        64.92030         0.26181
C         64.74611        67.08786         0.69847
C         63.48951        67.61995         1.28114
C         67.18108        34.12874         3.85358
C         65.99831        34.72614         3.46636
C         67.23113        36.50663         2.34267
C         65.99075        35.92152         2.70827
C         67.24662        37.72005         1.56841
C         66.03239        38.30143         1.10773
C         67.29406        40.17340         0.11717
C         66.07462        39.51975         0.36849
C         67.32845        41.50327        -0.49772
C         66.01804        42.28062        -0.53391
C         67.27993        44.11499        -1.80131
C         66.03379        43.47872        -1.43507
C         67.30189        45.68949        -1.79102
C         65.99831        46.31722        -1.32703
C         67.21478        48.48281        -1.21146
C         66.00044        47.81407        -1.47185
C         67.24485        49.90571        -1.18449
C         66.05261        50.63283        -1.42800
C         67.36308        52.76703        -1.27446
C         66.09313        52.08903        -1.42531
C         67.38827        54.23791        -1.67563
C         66.11468        54.93584        -1.25492
C         67.39031        57.14623        -0.98251
C         66.08554        56.40517        -1.13938
C         67.30964        58.50143        -0.45105
C         66.07480        59.18162        -0.43323
C         67.28492        61.41646        -0.15395
C         66.08382        60.65222        -0.47118
C         67.24165        62.79282        -0.07809
C         65.98596        63.50722         0.01876
C         67.28766        65.60779         0.56354
C         66.00303        64.95013         0.29005
C         67.38612        67.12893         0.74640
C         66.04353        67.83567         0.95922
C         66.99772        69.23539         2.75060
C         66.00706        69.01112         1.85597
C         69.68577        32.85896         4.67458
C         69.67709        34.05774         3.92051
C         68.43435        34.68909         3.51154
C         69.71169        36.48680         2.38725
C         68.45510        35.88976         2.75061
C         69.72474        37.70025         1.62858
C         68.49637        38.32105         1.22688
C         69.77535        40.11068         0.10317
C         68.52372        39.53753         0.48219
C         69.81440        41.28440        -0.85465
C         68.51190        42.06433        -0.88643
C         69.85388        44.17709        -1.49488
C         68.57049        43.39670        -1.54311
C         69.88002        45.71377        -1.61021
C         68.52383        46.38716        -1.40974
C         69.65079        48.45317        -0.64043
C         68.45570        47.72920        -1.05059
C         69.59135        49.88024        -0.46393
C         68.46161        50.60526        -0.83799
C         69.76207        52.72889        -0.61541
C         68.50843        52.05541        -0.92865
C         69.92215        54.17251        -0.86111
C         68.67584        54.99695        -1.32067
C         69.83633        57.06136        -0.50544
C         68.66254        56.40496        -0.93220
C         69.83019        58.47304        -0.18669
C         68.53815        59.16584        -0.02836
C         69.81068        61.38671         0.12827
C         68.52487        60.67257         0.15248
C         69.80613        62.79481         0.10138
C         68.53056        63.57359        -0.17003
C         69.76053        65.40719         1.13765
C         68.46145        64.90991         0.53522
C         69.74039        66.84832         1.60242
C         68.43781        67.46871         1.79116
C         70.18457        69.45111         3.24658
C         68.19347        68.42520         2.74093
C         70.35002        70.75596         3.72238
C         72.10100        32.84535         4.70462
C         70.87482        32.26132         5.06113
C         72.11984        34.01855         3.96733
C         70.91911        34.64964         3.55986
C         72.14960        36.50230         2.41908
C         70.93089        35.87974         2.78781
C         72.16721        37.67418         1.69360
C         70.96504        38.30330         1.27976
C         72.22635        40.19458         0.22361
C         70.97395        39.52245         0.51108
C         72.25196        41.46870        -0.24459
C         71.04433        42.15740        -0.64002
C         72.28674        44.29421        -0.91899
C         71.06592        43.49894        -0.93972
C         72.22550        45.63496        -0.80208
C         70.87747        46.26565        -0.57193
C         72.05892        48.52410        -0.19154
C         70.86619        47.77774        -0.48833
C         72.02643        49.85267         0.08504
C         70.71415        50.56353         0.27785
C         71.91460        52.76371         0.54072
C         70.79359        52.05174         0.02596
C         72.01070        54.13781         0.45334
C         71.02033        54.89918        -0.21570
C         72.22976        57.05451         0.07127
C         71.04922        56.32032        -0.25716
C         72.22821        58.42417         0.16716
C         71.01133        59.17439         0.08367
C         72.21732        61.37187         0.30283
C         71.01593        60.64118         0.21027
C         72.21383        62.76296         0.32854
C         71.02115        63.49668         0.21825
C         72.22968        65.65659         0.79688
C         70.97572        65.02186         0.24956
C         72.18676        66.79256         1.51669
C         70.94083        67.48285         1.84399
C         72.13176        69.67871         1.85084
C         71.07013        68.87427         2.31262
C         72.29904        70.98500         2.30966
C         71.41862        71.52269         3.25391
O         43.86422        50.96797         2.14875
O         63.17314        50.45453        -3.41419
O         60.48823        58.24828         1.63062
O         69.12710        68.67622         3.77503
O         69.73212        54.61808        -2.25409
O         64.33223        41.37989        -2.22215
O         60.60558        52.82107        -3.57965
O         67.31297        44.92987        -3.01202
O         57.86827        48.44364        -0.42628
O         55.95204        42.55660        -2.22160
O         59.08273        43.56705        -2.85523
O         49.34703        57.32247        -1.89764
O         60.97898        46.97058        -3.39860
O         62.69633        52.35860        -0.46916
O         53.17626        48.64780        -0.13422
O         49.55482        49.12373        -2.69900
O         58.41514        51.47781        -3.61774
O         42.55750        52.06624        -0.96592
O         64.22399        39.03134        -1.16831
O         65.36401        61.14203        -1.64867
O         69.45282        43.47403        -2.72753
O         60.38558        55.40629        -2.87545
O         54.53791        49.07820        -3.38130
O         66.62928        57.08311        -2.28790
O         64.83613        44.85610        -3.05626
O         38.45706        51.39156         1.45390
O         55.35002        61.43682        -0.56003
O         63.20467        54.95630        -2.88706
O         65.33150        67.99956        -0.30756
O         55.02293        45.03976         0.27999
O         53.34760        51.63040        -3.27723
O         60.50568        55.90440         0.61761
O         45.47016        46.78119        -0.99818
O         52.96540        54.33356         0.24789
O         42.49912        54.68122        -1.41952
O         68.38344        59.79234         1.32199
O         62.64034        65.53255        -0.75774
O         62.16391        60.67841         1.95319
O         47.69857        54.78566        -2.40208
O         55.43168        57.18827        -2.18853
O         70.36574        45.78431         0.71619
H         71.04234        45.97975         1.39805
O         69.92686        64.60862         2.35527
H         69.31985        64.96366         3.03826
O         70.34332        46.05055        -2.92557
H         69.85257        45.48009        -3.55880
O         65.10677        56.60113         0.99065
H         64.33237        56.91218         1.50796
O         70.81402        65.51702        -1.09087
H         70.06773        65.02236        -1.51465
O         70.38584        50.42131         1.71285
H         70.34002        49.46020         1.90300
O         59.66647        60.90650         2.66230
H         60.56218        60.80915         3.06000
O         56.30934        47.31051        -3.46392
H         55.87337        47.96533        -4.06039
O         68.62464        63.92423        -1.60852
H         67.80201        64.40142        -1.85339
O         67.90693        67.61779        -0.51783
H         67.12895        67.80311        -1.09247
O         46.48029        52.04932         1.17239
H         46.46296        52.93645         1.58749
O         65.93567        46.04480         0.12193
H         66.52486        46.68736         0.57348
O         50.88374        55.79959         1.03754
H         51.66632        55.22939         1.24024
O         65.74212        42.73045         0.84099
H         66.32721        43.49156         1.04225
O         46.85260        48.35904        -2.46704
H         46.38215        47.49192        -2.52377
O         69.97001        40.72042        -2.19585
H         69.91048        41.47935        -2.82325
O         57.38069        41.21547         1.77565
H         58.22501        41.71362         1.73305
O         45.48043        50.80509        -2.11213
H         45.75972        49.98052        -2.57993
O         67.32182        54.21369        -3.13324
H         68.25102        54.18918        -3.45941
O         51.23312        55.60494        -2.63933
H         50.46646        56.19864        -2.83922
H         38.46387        49.27347         3.98579
H         36.74488        50.66438         5.02469
H         38.25929        54.23200         3.17264
H         36.64678        53.11026         4.62990
H         39.84726        48.24446         3.08443
H         39.37417        55.01042         1.76605
H         41.86566        47.02742         2.51666
H         41.00401        56.12468         0.35613
H         45.63636        45.03275         1.82466
H         43.72599        46.33549         2.57781
H         44.83314        58.24718        -0.06406
H         42.69502        57.10916        -0.18593
H         46.67397        43.80765         0.48665
H         46.51211        59.01154         0.41241
H         48.75597        42.56576         0.12031
H         48.61919        60.10706         0.84909
H         52.18062        40.28082        -0.81778
H         50.15747        41.63975        -0.68927
H         52.44133        61.94024         1.86247
H         50.31220        60.76292         1.58655
H         53.89585        39.52903         0.48940
H         54.16910        62.77664         2.27090
H         56.02014        38.73819         1.37703
H         56.28901        63.97917         2.34414
H         59.81651        36.68644         1.81144
H         57.69036        37.81484         1.42142
H         59.74154        66.50365         1.25814
H         57.67111        65.19137         1.44807
H         61.37861        36.16304         2.70024
H         61.44344        67.39089         1.74103
H         63.46913        35.15294         3.39171
H         63.51183        68.62463         1.72393
H         67.12884        33.19968         4.43549
H         65.05559        34.24311         3.75272
H         66.94335        70.07859         3.45230
H         65.14519        69.68940         1.80392
H         68.74107        32.38108         4.96541
H         69.65050        71.15901         4.46638
H         73.04470        32.37229         5.00932
H         70.85797        31.33091         5.64529
H         73.09196        34.45366         3.70078
H         73.10907        36.05579         2.71003
H         73.14044        38.10972         1.43465
H         73.17651        39.71044         0.48175
H         73.21692        41.98850        -0.32290
H         73.26079        43.79504        -1.02314
H         73.14439        46.23410        -0.84347
H         73.03371        48.01759        -0.22334
H         72.96574        50.38561         0.28761
H         72.68870        52.21392         1.09218
H         72.85759        54.64687         0.93318
H         73.17689        56.51367         0.20339
H         73.17590        58.93759         0.37502
H         73.18291        60.85257         0.36141
H         73.17632        63.28327         0.42083
H         73.20659        65.23599         0.51800
H         73.12714        67.25287         1.85530
H         72.82767        69.27956         1.10008
H         73.13157        71.59250         1.92965
H         71.56538        72.54620         3.62531
