         618
 CSIRO Nanostructure Databank - Neutral Graphene Oxide Data Set
C         23.32041        69.69526        -1.14589
C         23.37223        71.10786        -1.37069
C         22.17931        71.83257        -1.64333
C         23.36833        73.93864        -1.46828
C         22.19503        73.22730        -1.70010
C         25.42728        65.55002         0.41748
C         25.49625        66.91627         0.20310
C         24.36322        67.60772        -0.33582
C         25.75660        69.61104        -0.66612
C         24.42604        68.96205        -0.68972
C         25.83703        71.07973        -1.00715
C         24.58904        71.82548        -1.22055
C         25.77022        73.99269        -0.92981
C         24.59838        73.25856        -1.21568
C         27.81110        61.25887         0.39068
C         27.74513        62.68122         0.55122
C         26.57395        63.33547         0.79945
C         27.83124        65.51435         1.08280
C         26.49876        64.79498         1.15497
C         27.76788        67.00832         1.39868
C         26.69706        67.68192         0.55222
C         27.99056        69.80352         0.50720
C         26.83356        68.98842         0.14319
C         28.07942        71.15318         0.20195
C         27.08371        71.83394        -0.64950
C         28.18801        74.09169        -0.07758
C         27.05856        73.35622        -0.67984
C         30.05478        56.85932        -0.18364
C         29.79203        58.12441         0.35379
C         28.86919        59.13641         0.05322
C         30.26705        61.25798         0.71471
C         28.99667        60.51977         0.44304
C         30.25671        62.63771         0.63851
C         29.01524        63.43844         0.26931
C         30.28257        65.50891         1.17988
C         28.99208        64.85265         0.85334
C         30.32638        66.99114         1.49141
C         29.08675        67.73175         1.28118
C         30.39183        69.79605         1.23912
C         29.14615        69.10232         1.05380
C         30.39136        71.26363         1.29119
C         29.16850        71.97956         0.75864
C         30.50941        74.09728         0.74715
C         29.28232        73.42735         0.43113
C         32.77217        52.80868         0.40689
C         32.69610        54.11755         0.03541
C         31.44750        54.85619         0.00196
C         32.64209        57.06686        -0.25801
C         31.35738        56.23581        -0.02754
C         32.78106        58.46989         0.32800
C         31.69374        59.18288         0.82275
C         32.80114        61.27408         0.55779
C         31.58620        60.58865         0.76253
C         32.83684        62.72280         0.91128
C         31.53301        63.39519         0.55821
C         32.84761        65.58094         0.96348
C         31.55620        64.88054         0.74553
C         32.85136        66.96904         1.28029
C         31.62023        67.68971         1.42265
C         32.82620        69.84347         1.77103
C         31.59094        69.09836         1.45587
C         32.83678        71.31350         1.61811
C         31.68074        71.99147         1.35362
C         32.92818        74.11786         1.20519
C         31.67789        73.43683         1.14148
C         35.34089        48.46849         0.38438
C         35.28146        49.91382         0.33790
C         34.08784        50.61417         0.47155
C         35.26263        52.78782        -0.00245
C         34.08612        52.11197         0.66903
C         35.22334        54.16444        -0.29260
C         33.90449        54.87141        -0.46865
C         35.17574        57.06577        -0.31144
C         33.92563        56.29210         0.10077
C         35.18232        58.47647        -0.29162
C         33.97051        59.18577         0.04492
C         35.20415        61.34240        -0.06761
C         34.00068        60.59551         0.23211
C         35.17198        62.79213         0.00632
C         34.04325        63.46988         0.41132
C         35.25534        65.64271         0.47741
C         34.03745        64.91211         0.59465
C         35.26172        67.01040         0.85989
C         34.10350        67.66658         1.29168
C         35.37939        69.90061         1.52907
C         34.14097        69.09153         1.71021
C         35.36891        71.26173         1.59287
C         34.11785        72.03369         1.97270
C         35.36463        74.14674         1.35977
C         34.13645        73.46800         1.48623
C         37.85697        44.18491         0.20026
C         37.77952        45.57919         0.13967
C         36.58056        46.31103         0.34707
C         37.78294        48.44577        -0.04888
C         36.51844        47.72635         0.24135
C         37.75760        49.95006        -0.12431
C         36.50162        50.67004         0.12037
C         37.66743        52.72714        -0.67579
C         36.47197        52.05496        -0.10951
C         37.63735        54.22385        -0.87013
C         36.38302        54.91728        -0.57122
C         37.59841        57.07368        -0.73066
C         36.37257        56.35160        -0.54916
C         37.58799        58.48223        -0.71219
C         36.38876        59.21635        -0.51567
C         37.58986        61.43523        -0.72093
C         36.37581        60.66622        -0.46499
C         37.62529        62.81262        -0.58697
C         36.33252        63.58767        -0.54834
C         37.66650        65.66427        -0.08934
C         36.46427        64.98268         0.02813
C         37.64780        67.17367        -0.01787
C         36.57579        67.70026         0.91716
C         37.86844        69.87980         0.98676
C         36.63546        69.14234         1.30928
C         37.83153        71.35604         1.06614
C         36.67128        72.02429         1.76840
C         37.81920        74.22574         1.32762
C         36.62366        73.50838         1.44262
C         40.33674        39.94686         0.58594
C         40.31935        41.34134         0.30900
C         39.10303        42.05781         0.27321
C         40.33521        44.12154        -0.15362
C         39.09103        43.45293         0.08490
C         40.31177        45.57687        -0.37087
C         39.02455        46.32285        -0.16011
C         40.32517        48.48260        -0.01114
C         39.05442        47.75751         0.11229
C         40.34080        49.99213        -0.06124
C         39.03392        50.71444         0.04336
C         40.22845        52.82162        -0.85914
C         39.00329        52.13716        -0.37582
C         40.16139        54.23301        -0.94600
C         38.91183        54.96452        -0.86219
C         40.09274        57.11153        -0.81583
C         38.85898        56.36013        -0.84642
C         40.12169        58.49265        -0.90791
C         38.83047        59.20360        -1.06919
C         40.12099        61.45579        -1.32026
C         38.80616        60.69669        -1.16254
C         40.05894        62.87073        -0.78768
C         38.87760        63.56143        -0.66262
C         40.08511        65.77015        -0.61282
C         38.89929        65.01797        -0.47915
C         40.15717        67.16098        -0.19622
C         38.99463        67.82024         0.19508
C         40.30742        69.89880         0.68738
C         39.00082        69.20912         0.57385
C         40.36425        71.35031         1.03850
C         39.09946        72.13692         0.97785
C         40.30479        74.29630         1.18991
C         39.11525        73.60147         1.25506
C         42.70514        35.78293         1.88688
C         42.75260        37.21551         1.40592
C         41.57102        37.86628         1.12777
C         42.78517        39.95455         0.62751
C         41.53936        39.25390         0.76249
C         42.78125        41.32536         0.24132
C         41.56130        42.03681         0.10391
C         42.82550        44.11815        -0.53567
C         41.57143        43.44361        -0.16647
C         42.74366        45.56379        -0.86092
C         41.62834        46.30122        -0.13959
C         42.42406        48.41884        -1.29291
C         41.49435        47.74758        -0.53667
C         42.20906        49.81877        -1.59324
C         41.38123        50.65715        -0.89567
C         42.66567        52.82125        -1.38718
C         41.42755        52.10900        -1.10591
C         42.62799        54.23871        -1.10832
C         41.40046        54.91749        -0.93101
C         42.60047        57.10952        -0.43390
C         41.32955        56.34748        -0.57366
C         42.57753        58.57111        -0.61837
C         41.36552        59.24277        -0.83120
C         42.57695        61.37898        -0.85311
C         41.37335        60.68343        -0.91111
C         42.55340        62.85055        -0.50335
C         41.32648        63.59642        -0.98530
C         42.68480        65.85296        -1.11091
C         41.33604        65.10253        -1.05444
C         42.65979        67.25284        -0.56303
C         41.43733        67.89722        -0.22092
C         42.67036        70.09196        -0.29816
C         41.49324        69.24783         0.13581
C         42.80572        71.45155         0.34618
C         41.66054        72.09385         0.97016
C         42.84300        74.31491         0.64882
C         41.63195        73.63678         1.10029
C         45.34247        33.07100         2.30853
C         44.10826        33.72558         2.14640
C         45.25501        35.85696         1.90607
C         44.05185        35.10437         1.95458
C         45.23970        37.26948         1.62360
C         44.00551        37.91779         1.32339
C         45.23785        40.01461         0.88373
C         44.00675        39.28131         0.91579
C         45.21036        41.36965         0.45274
C         44.01905        42.02312         0.06244
C         45.38096        43.80308        -0.98888
C         44.01203        43.38061        -0.45842
C         45.53190        45.18652        -1.53465
C         43.57177        46.28337        -1.69819
C         44.71531        48.44689        -2.28713
C         43.58845        47.73735        -1.83573
C         45.07386        49.84780        -2.21049
C         44.04790        50.86509        -2.20776
C         45.17641        53.00728        -1.59732
C         43.95652        52.20785        -1.73598
C         45.13082        54.33552        -1.09345
C         43.86310        55.00083        -0.92613
C         45.04420        57.10535        -0.13601
C         43.84950        56.35635        -0.62459
C         45.03529        58.55441        -0.58966
C         43.83632        59.26266        -0.67122
C         45.06815        61.40144        -0.86661
C         43.84141        60.70031        -0.81865
C         45.09192        62.87145        -1.01228
C         43.81418        63.61997        -0.85158
C         45.15543        65.76339        -0.63543
C         43.82468        65.07646        -0.40662
C         45.15900        67.18110        -0.57419
C         43.91266        67.92140        -0.46918
C         45.18843        70.03299        -0.27232
C         43.96315        69.32523        -0.28584
C         45.21986        71.45701        -0.08943
C         43.99970        72.15417         0.25687
C         45.28531        74.27505         0.29836
C         44.02425        73.60159         0.44025
C         46.52410        33.79536         2.30185
C         47.70952        35.96407         2.08979
C         46.50072        35.19614         2.09916
C         47.70742        37.32283         1.87336
C         46.46480        38.00336         1.60542
C         47.69068        40.15852         1.35618
C         46.45774        39.39014         1.29099
C         47.67296        41.49881         1.05615
C         46.43232        42.16492         0.64866
C         47.74893        44.25749        -0.04816
C         46.47605        43.51253         0.01819
C         47.75631        45.54008        -0.52334
C         46.61156        46.01133        -1.29326
C         47.70694        48.22297        -1.49572
C         46.70003        47.32933        -1.84999
C         47.66585        49.59846        -1.96893
C         46.46471        50.22161        -2.34577
C         47.66331        53.20192        -1.72413
C         46.44968        52.53737        -2.03343
C         47.60075        54.47093        -1.14994
C         46.34675        55.09345        -0.88204
C         47.58440        57.12019         0.04325
C         46.33468        56.40293        -0.39182
C         47.62581        58.53416        -0.55126
C         46.29030        59.24910        -0.84783
C         47.54373        61.41210        -0.85992
C         46.30850        60.71707        -0.85403
C         47.56554        62.85973        -0.88157
C         46.37279        63.59238        -0.85905
C         47.61700        65.72652        -0.73506
C         46.35555        65.02431        -0.73461
C         47.62851        67.17451        -0.61465
C         46.39131        67.89532        -0.55415
C         47.65429        70.03223        -0.40546
C         46.41755        69.31502        -0.41866
C         47.66318        71.43751        -0.31541
C         46.45022        72.14908        -0.13544
C         47.74847        74.25191         0.18285
C         46.47864        73.59090         0.08194
C         49.04632        38.03508         1.84812
C         50.08906        40.28737         1.94964
C         48.97212        39.54321         1.73313
C         50.08398        41.80291         1.90623
C         48.94474        42.25274         1.00876
C         50.08648        44.54867         0.95637
C         48.97309        43.64054         0.48409
C         50.12346        45.85288         0.19701
C         48.91671        46.40167        -0.36485
C         50.00199        48.64693        -0.41416
C         48.86232        47.72825        -0.79538
C         50.05866        49.92328        -1.22607
C         48.94307        50.30580        -1.94424
C         50.08440        52.97052        -1.18573
C         48.97418        52.57191        -1.89854
C         50.00583        54.33366        -0.57901
C         48.89751        55.21447        -1.13587
C         50.14450        57.27461        -0.40608
C         48.87122        56.49177        -0.37931
C         50.03178        58.64692         0.25799
C         48.81048        59.35658        -0.31552
C         50.06297        61.41859        -0.81764
C         48.77688        60.69908        -0.64032
C         50.05029        62.88779        -0.83760
C         48.83390        63.56836        -0.85940
C         50.06662        65.74386        -1.10780
C         48.80661        65.00605        -0.84947
C         50.09151        67.09619        -0.47474
C         48.83613        67.86988        -0.45330
C         50.12079        69.95630        -0.07966
C         48.89796        69.29109        -0.35135
C         50.17641        71.37917        -0.09927
C         48.96487        72.17795        -0.52602
C         50.19793        74.20788         0.36373
C         48.96554        73.58170         0.05255
C         51.37371        42.47517         1.45558
C         52.59478        44.49138         0.68682
C         51.39760        43.78654         1.01922
C         52.58980        45.83692         0.25865
C         51.32984        46.53568         0.03991
C         52.51347        48.59664        -0.57839
C         51.32404        47.90385        -0.39710
C         52.50323        50.03157        -0.80835
C         51.28062        50.72681        -1.08193
C         52.47555        52.81638        -0.57029
C         51.29116        52.16007        -1.01388
C         52.44846        54.16114         0.04675
C         51.21144        54.99630         0.01872
C         52.51693        57.14332         0.42019
C         51.34075        56.47806         0.10285
C         52.52556        58.64016         0.27409
C         51.35587        59.32634         0.01074
C         52.60941        61.47500        -0.49511
C         51.35709        60.69253        -0.55167
C         52.61133        62.85396        -0.68663
C         51.33011        63.63365        -0.54346
C         52.66371        65.79843        -1.09727
C         51.36564        65.01978        -1.15828
C         52.66259        67.28706        -0.58329
C         51.34789        67.73585        -0.00217
C         52.54320        69.84001         0.82740
C         51.20257        69.13111         0.62626
C         52.56963        71.31085         0.56028
C         51.35418        72.06459         0.17629
C         52.64280        74.10473         0.83471
C         51.42340        73.49677         0.39574
C         53.78443        46.53799        -0.02108
C         54.98488        48.60998        -0.55927
C         53.77767        47.89950        -0.40366
C         54.99428        50.02099        -0.67501
C         53.73238        50.73345        -0.71839
C         54.97707        52.86184        -0.39607
C         53.72814        52.14709        -0.56450
C         55.01092        54.23432        -0.07877
C         53.73893        54.88704         0.27639
C         54.99203        56.83373         0.88045
C         53.74681        56.34718         0.51787
C         54.97896        58.93736         0.66283
C         53.77025        59.40265         0.15901
C         55.05644        61.45874        -0.37629
C         53.81689        60.75816        -0.31808
C         55.06010        62.85435        -0.57200
C         53.84597        63.56382        -0.70948
C         55.13219        65.55548        -1.23916
C         53.88403        64.98058        -1.00759
C         55.13080        67.57866        -0.63679
C         53.88772        67.98127        -0.12215
C         55.08754        69.63787         1.23995
C         53.85887        69.10223         0.77663
C         55.21986        70.93777         1.93537
C         53.83409        72.08222         0.23899
C         55.07499        73.93027         1.45875
C         53.88566        73.41973         0.91036
C         56.20136        50.74418        -0.70109
C         57.43124        52.89064        -0.59250
C         56.22460        52.16002        -0.58132
C         57.45361        54.28419        -0.33932
C         56.23538        54.95614         0.00003
C         57.46867        57.12648         0.37643
C         56.27773        56.32341         0.44451
C         57.43491        58.60490         0.43031
C         56.25236        59.40553         0.25963
C         57.54757        61.36284        -0.45801
C         56.30666        60.74458        -0.20299
C         57.51279        62.72587        -1.09129
C         56.39424        63.55320        -0.44140
C         57.55774        65.76397        -0.79548
C         56.38406        64.99123        -0.91768
C         57.57352        67.13465        -0.32369
C         56.37559        67.88569        -0.04039
C         57.59024        69.63788         1.12480
C         56.35643        69.03798         0.82204
C         57.61776        70.99730         1.78873
C         56.32419        71.75542         1.59379
C         57.53283        73.89337         1.76380
C         56.29933        73.18584         1.65818
C         58.63204        55.06137        -0.38715
C         59.93547        57.05777        -0.47078
C         58.68111        56.44464        -0.09903
C         60.40118        58.31122        -0.05745
C         58.61046        59.39274         0.42954
C         60.04312        61.35051        -0.34452
C         58.74061        60.69350        -0.14153
C         60.07475        62.73258        -0.61348
C         58.84398        63.48695        -1.00117
C         60.15267        65.76305        -0.82448
C         58.84089        65.00302        -0.95921
C         60.05501        67.03725        -0.02787
C         58.81788        67.70595         0.13670
C         60.06065        69.67146         0.97941
C         58.81740        69.00916         0.75887
C         60.10120        71.06155         1.57060
C         58.80451        71.79437         1.25203
C         60.01448        73.93466         1.63146
C         58.79384        73.25643         1.64819
C         61.36338        59.17635        -0.59732
C         62.50041        61.33122        -0.48100
C         61.30194        60.60841        -0.39817
C         62.54107        62.74741        -0.39642
C         61.30206        63.47534        -0.51437
C         62.53888        65.56576        -0.16995
C         61.32878        64.88889        -0.43793
C         62.53242        66.97987         0.08905
C         61.27547        67.67419         0.25858
C         62.52485        69.76021         0.75980
C         61.27632        69.03582         0.69319
C         62.52053        71.18027         0.95468
C         61.30772        71.86824         1.18857
C         62.48806        73.99692         1.23026
C         61.26670        73.27348         1.35344
C         63.76077        63.44542        -0.27178
C         64.99991        65.57966        -0.00955
C         63.78504        64.84825        -0.13658
C         65.00141        66.97103         0.14428
C         63.74472        67.67135         0.26054
C         64.97388        69.81416         0.57075
C         63.74244        69.08702         0.52440
C         64.96598        71.20190         0.78515
C         63.74608        71.90487         0.92362
C         64.94038        74.06767         0.85576
C         63.71127        73.34400         1.03475
C         66.21860        67.72651         0.17570
C         67.43147        69.87477         0.21332
C         66.22613        69.10664         0.34481
C         67.45173        71.25289         0.38880
C         66.25744        71.93806         1.01443
C         67.36237        74.11821         0.43354
C         66.15975        73.41900         0.71406
C         68.60359        72.03558         0.12490
C         68.55504        73.43345         0.18076
O         30.29787        65.95530         2.57422
O         50.68731        66.77928         0.88656
O         41.27371        64.27297        -2.27303
O         39.58007        46.02166        -1.54516
O         37.75881        49.18314        -1.37952
O         59.72560        58.85386         1.05919
O         38.26566        71.91666        -0.22443
O         46.57312        51.49645        -2.94043
O         50.65288        65.33404        -2.38738
O         49.40742        42.51925        -0.37047
O         37.51418        53.26116        -2.01235
O         42.84223        50.34975        -2.72106
O         52.38636        70.78387         1.92621
O         27.61161        72.52702        -1.81634
O         29.36086        71.77844         2.20817
O         30.66428        58.46662         1.40830
O         45.76667        47.67361        -2.82749
O         46.06965        43.41219         1.42128
O         44.29348        63.37775        -2.18973
O         44.54429        45.57415        -2.44092
O         53.05982        54.15916         1.38595
O         47.11567        58.60741        -1.90454
O         54.56739        71.75088        -0.68061
O         41.87759        56.64207         0.78939
O         41.93405        72.74687         2.24264
O         39.03516        51.75456         1.06203
O         40.71845        49.33414         1.18254
O         50.13522        54.42269         0.86627
O         40.44781        70.36801         2.11643
O         26.15298        70.04794        -2.01342
O         33.48467        69.36343         3.00377
O         55.16373        66.83480        -1.81796
O         31.54511        64.28771        -0.61153
O         52.63367        66.93976        -1.99053
O         36.93227        68.04731         2.27865
O         49.04243        51.45793        -2.74871
O         54.98841        57.98213         1.67353
O         38.59383        59.88193        -2.38010
O         50.81246        60.77833        -1.93692
O         58.95794        64.26359        -2.24771
O         47.53878        57.25293         1.49981
H         46.58776        57.21794         1.78067
O         32.88179        62.78430         2.37944
H         33.69025        62.31703         2.67809
O         33.98133        56.14479         1.53683
H         33.88615        57.03274         1.94160
O         57.18337        62.50990        -2.47450
H         57.59995        63.24239        -2.98767
O         49.73978        44.90674         2.34520
H         50.45107        45.48970         2.68687
O         43.05118        66.01498        -2.49543
H         42.79829        65.18197        -2.96181
O         60.49071        66.25594        -2.16353
H         60.27259        65.52799        -2.79060
O         50.68258        68.97717         1.96769
H         50.27235        68.07849         2.01652
O         49.09783        72.34527        -1.98078
H         48.33080        72.87395        -2.28746
O         32.62315        57.34242        -1.68154
H         32.86675        56.50949        -2.15361
O         54.46317        71.36786         2.93172
H         53.65585        70.81666         3.07257
O         34.30916        52.28534         2.12493
H         35.18984        51.90670         2.33424
O         36.96267        71.93105         3.19147
H         36.12623        72.15791         3.66667
O         45.65140        42.92225        -2.13159
H         45.07048        43.21157        -2.86819
O         36.00418        63.82478        -1.96805
H         35.91771        62.94860        -2.40141
O         44.86848        57.19968         1.36051
H         43.93983        56.94275         1.56876
O         51.27184        63.93538         0.90499
H         51.27012        63.08539         1.39456
O         41.78472        35.01452         1.09796
H         42.12693        34.97708         0.18156
O         29.03112        63.60618        -1.17975
H         29.93005        63.94070        -1.42063
O         50.48243        57.59609        -1.79514
H         50.32473        56.78938        -2.34758
O         33.74926        54.97124        -1.92109
H         33.87676        54.07766        -2.30452
O         58.70197        71.78039        -0.19512
H         57.83426        72.16737        -0.44080
O         40.32431        61.67088        -2.74873
H         39.82329        60.95909        -3.21505
O         41.85754        46.24159         1.29691
H         42.53549        46.90759         1.53444
O         43.55136        65.15837         1.01078
H         44.34059        64.86139         1.50806
O         49.82975        37.51617         0.75253
H         49.38510        37.76643        -0.08332
O         37.19636        67.61628        -1.34487
H         37.71928        67.13474        -2.02091
O         42.39941        62.84771         0.95042
H         43.00907        62.18027         1.32877
O         60.25848        70.91463         3.02669
H         61.11066        70.45584         3.18670
O         66.49374        71.86172         2.47006
H         67.33349        72.33670         2.64772
O         49.89162        58.55180         1.68865
H         49.09428        57.99839         1.89076
O         27.36376        67.15339         2.80852
H         28.13665        66.87521         3.34961
O         42.38526        70.37979        -1.73205
H         42.47977        69.53498        -2.22448
O         57.66662        70.80015         3.22804
H         58.60962        70.69781         3.50337
O         26.07524        64.81053         2.56145
H         26.25466        65.72456         2.90225
O         49.74111        49.05508         0.97779
H         49.69342        48.23874         1.51910
O         49.23806        55.42895        -2.56635
H         48.48589        55.90609        -2.98003
O         34.15440        72.08363         3.44357
H         33.95123        71.16482         3.74947
O         56.72272        63.60319         0.98233
H         55.95406        63.97387         1.46422
O         49.82556        42.25879         3.26467
H         49.71297        43.24198         3.22307
H         23.36216        75.03754        -1.48954
H         25.69591        75.08380        -0.81073
H         28.22006        75.18494        -0.20189
H         30.56052        75.18054         0.55847
H         32.95524        75.18306         0.92747
H         35.34003        75.21860         1.10466
H         37.76974        75.32461         1.26468
H         40.28768        75.39625         1.24380
H         42.83966        75.40998         0.53963
H         45.31517        75.36372         0.45849
H         47.75393        75.31247         0.48123
H         50.18649        75.26243         0.68130
H         52.60135        75.15681         1.15967
H         55.08433        74.99207         1.75727
H         57.50268        74.99145         1.84602
H         60.03142        75.02148         1.80884
H         62.47104        75.09408         1.31264
H         64.89819        75.16522         0.77403
H         67.33823        75.21528         0.35582
H         22.34676        69.18955        -1.23199
H         21.23769        71.28377        -1.78536
H         21.26292        73.77155        -1.90733
H         24.49962        65.01675         0.15853
H         23.41827        67.05711        -0.45618
H         26.86160        60.71227         0.27703
H         25.64891        62.75279         0.93527
H         29.28175        56.32799        -0.76177
H         27.98507        58.88117        -0.55199
H         31.85665        52.28715         0.73020
H         30.51742        54.27524         0.11453
H         34.39852        47.92930         0.56674
H         33.14931        50.06289         0.63571
H         36.93984        43.60936         0.39982
H         35.65628        45.75620         0.57068
H         39.38098        39.41758         0.71544
H         38.15701        41.52449         0.44925
H         42.28016        35.79034         2.93141
H         40.62160        37.31700         1.21218
H         45.36406        31.98244         2.45796
H         43.17247        33.14969         2.17297
H         47.48893        33.28884         2.44767
H         48.66514        35.44419         2.25395
H         49.61041        37.76744         2.77994
H         51.02017        39.78056         2.24934
H         52.32541        41.93481         1.58540
H         53.55778        43.96390         0.76582
H         54.75063        46.02990         0.11949
H         55.94158        48.07240        -0.47478
H         57.15465        50.19631        -0.74824
H         58.37880        52.36391        -0.78014
H         59.56426        54.56773        -0.70168
H         60.55676        56.49234        -1.18270
H         62.17596        58.77998        -1.22499
H         63.45056        60.77914        -0.53479
H         64.70445        62.88049        -0.24694
H         65.95642        65.03727        -0.04954
H         67.17063        67.19641         0.02105
H         68.34887        69.35790        -0.11009
H         69.53048        71.53597        -0.19354
H         69.46271        74.00875        -0.05024
