         344
 CSIRO Nanostructure Databank - Neutral Graphene Oxide Data Set
C          1.69074         1.87687        -1.17873
C          1.67192         3.27629        -1.27433
C          2.77135         1.23212        -0.60665
C          2.71132         4.07066        -0.75015
C          1.64389         6.20840        -1.48123
C          1.59079         7.61207        -1.51498
C          2.67961         5.49888        -0.86478
C          2.67366         8.41643        -1.09941
C          1.59225        10.54688        -1.77518
C          1.54994        11.89805        -1.81977
C          2.70402         9.81868        -1.20315
C          2.58012        12.73532        -1.11122
C          1.64485        14.86831        -2.04847
C          1.76452        16.20787        -2.52940
C          2.73575        14.11754        -1.70630
C          2.99640        16.85810        -2.52247
C          3.11436        18.26497        -2.84608
C          3.87511         1.98073        -0.09977
C          3.83879         3.42763        -0.11007
C          5.01569         1.31112         0.34750
C          4.92638         4.16023         0.42819
C          3.66738         6.31518        -0.06391
C          3.94461         7.66242        -0.76670
C          4.96401         5.61378         0.30705
C          4.96299         8.47847         0.04319
C          3.89423        10.58069        -0.83543
C          3.88907        11.99115        -0.93891
C          5.06968         9.92103        -0.38409
C          5.05941        12.72443        -0.62112
C          4.12385        14.65443        -1.93754
C          4.16446        16.15174        -2.08750
C          5.14041        14.12821        -0.95185
C          5.37507        16.82167        -1.90588
C          4.30259        18.91532        -2.73923
C          5.49854        18.22367        -2.29630
C          6.16507         2.02423         0.79143
C          6.10448         3.47852         0.87632
C          7.30918         1.33892         1.15909
C          7.25133         4.20144         1.27783
C          6.07971         6.33299         0.65925
C          6.31173         7.74320         0.13796
C          7.09467         5.68478         1.57264
C          7.30974         8.59694         0.88947
C          6.19922        10.64786         0.04475
C          6.19236        12.05529        -0.07956
C          7.30659         9.94763         0.71707
C          7.24726        12.87474         0.54906
C          6.25213        14.89440        -0.62879
C          6.45855        16.18522        -1.21920
C          7.25830        14.36150         0.31919
C          7.71649        16.84774        -1.07699
C          6.72339        18.82933        -2.26781
C          7.96983        18.02866        -1.99772
C          8.51685         2.04329         1.68358
C          8.48954         3.53603         1.44155
C          9.76964         1.39650         1.18707
C          9.70876         4.24103         1.40502
C          8.42028         6.44531         1.73446
C          8.40815         7.98311         1.72651
C          9.71787         5.70568         1.61302
C          9.76173         8.61018         1.39210
C          8.49581        10.72624         1.18223
C          8.50515        12.21002         1.02044
C          9.79582         9.99400         1.20866
C          9.78853        12.96178         0.88843
C          8.51046        15.17203         0.67269
C          8.72920        16.34683        -0.26947
C          9.78720        14.31671         0.79341
C         10.01652        17.00406        -0.23516
C          9.10939        18.88475        -1.54520
C         10.12853        18.36296        -0.79673
C         10.92822         2.12046         0.98936
C         10.93837         3.56782         1.19350
C         12.13695         1.47088         0.60762
C         12.15408         4.28642         1.10504
C         10.98203         6.44279         1.40050
C         10.98022         7.86957         1.38168
C         12.17920         5.72704         1.23990
C         12.22292         8.57581         1.34306
C         11.02985        10.70519         1.16890
C         11.10126        12.17863         0.79479
C         12.22924        10.00031         1.32895
C         12.24378        12.90537         1.54472
C         11.03597        15.12741         1.12647
C         11.11946        16.41104         0.32846
C         12.33393        14.34497         1.11848
C         12.46979        17.02269         0.07445
C         11.28512        19.14534        -0.45828
C         12.43703        18.53756         0.03325
C         13.35701         2.15736         0.57075
C         13.38096         3.58926         0.87112
C         14.53066         1.50866         0.13766
C         14.59634         4.27637         0.87272
C         13.42862         6.43510         1.16332
C         13.45788         7.84553         1.26950
C         14.65160         5.69900         1.00085
C         14.71952         8.54842         1.19888
C         13.51768        10.69868         1.73193
C         13.55668        12.16799         1.41052
C         14.76314         9.95626         1.31591
C         14.75807        12.82989         1.29428
C         13.52903        14.99624         1.06978
C         13.51373        16.50738         1.06232
C         14.79863        14.28529         1.16744
C         14.82768        17.16311         0.79131
C         13.60529        19.24635         0.35063
C         14.82490        18.56074         0.65122
C         15.79043         2.16876         0.12981
C         15.86682         3.46736         0.91192
C         16.89362         1.60166        -0.46429
C         17.07854         4.28322         0.56557
C         15.88967         6.39309         0.90328
C         15.93224         7.81446         0.99764
C         17.10683         5.64477         0.64928
C         17.18089         8.52177         0.92874
C         15.98741        10.65053         1.18581
C         16.02198        12.10575         1.24258
C         17.19084         9.92424         1.00298
C         17.23764        12.79104         1.26040
C         16.00555        14.95370         1.15813
C         16.12891        16.40750         0.77225
C         17.26493        14.24848         1.34458
C         17.13265        17.16873         1.64886
C         16.06764        19.25939         0.74549
C         17.23607        18.59217         1.13050
C         18.20681         2.31779        -0.62488
C         18.30697         3.48858         0.33431
C         19.44127         1.40601        -0.49265
C         19.62451         4.13497         0.55654
C         18.41959         6.35640         0.36165
C         18.43943         7.80449         0.80053
C         19.60888         5.59625         0.99558
C         19.65144         8.43281         1.00838
C         18.50519        10.63995         0.76239
C         18.50007        12.08940         1.18861
C         19.66864         9.88943         1.41724
C         19.70053        12.73938         1.36331
C         18.44386        14.92924         1.56862
C         18.48959        16.41985         1.88458
C         19.74465        14.18120         1.80879
C         19.70184        17.08018         1.25703
C         18.47158        19.21633         0.98952
C         19.68847        18.47554         0.98553
C         20.72708         2.21079        -0.60572
C         20.80384         3.53504        -0.09945
C         21.84916         1.63709        -1.19163
C         22.00820         4.26644        -0.15326
C         20.89530         6.32700         0.67806
C         20.90747         7.72306         0.86986
C         22.06055         5.64420         0.28675
C         22.15336         8.42954         0.86779
C         20.98658        10.59774         1.15589
C         20.97172        12.03900         1.22387
C         22.17432         9.87414         1.02317
C         22.16002        12.76766         1.09532
C         20.96104        14.92375         1.26993
C         20.90606        16.34407         1.10021
C         22.16627        14.21860         1.08383
C         22.11155        17.04543         0.75146
C         20.86601        19.14499         0.58565
C         22.08573        18.46645         0.48972
C         23.08852         2.33610        -1.25095
C         23.16689         3.65859        -0.70415
C         24.23541         1.76319        -1.83724
C         24.41406         4.34805        -0.66420
C         23.31253         6.33749         0.28306
C         23.35384         7.73025         0.63963
C         24.48539         5.63924        -0.08832
C         24.63636         8.41795         0.69330
C         23.45218        10.55099         1.01148
C         23.41724        12.02844         0.85325
C         24.65501         9.85491         0.95254
C         24.70013        12.79145         0.75304
C         23.39979        14.95009         0.88852
C         23.34244        16.35992         0.74500
C         24.66845        14.27849         0.80036
C         24.57741        17.15990         0.64435
C         23.25996        19.16476         0.09901
C         24.51610        18.54349         0.12392
C         25.46642         2.46082        -1.87649
C         25.57405         3.74439        -1.24984
C         26.59612         1.91218        -2.54126
C         26.81413         4.45334        -1.28390
C         25.82673         6.19548         0.28909
C         25.79905         7.69702         0.46897
C         26.95641         5.70403        -0.60580
C         27.10555         8.33105         0.65054
C         25.96121        10.55927         1.19168
C         25.99036        12.10545         1.12422
C         27.19437         9.75055         0.97542
C         27.20551        12.91226         0.80452
C         25.85684        14.96004         0.53917
C         25.89773        16.42825         0.53678
C         27.10960        14.27238         0.36196
C         27.04405        17.11675        -0.07634
C         25.69227        19.18793        -0.28373
C         26.94468        18.50884        -0.39693
C         27.80156         2.61718        -2.62212
C         27.92053         3.90204        -1.98920
C         28.93429         2.08352        -3.32608
C         29.15264         4.61460        -2.06037
C         28.18065         6.37460        -0.64796
C         28.36223         7.62226         0.12258
C         29.28514         5.87401        -1.40525
C         29.55339         8.44348        -0.15195
C         28.49274        10.23401         1.10079
C         28.49315        12.43008         0.98035
C         29.61701         9.74051         0.37682
C         29.63896        12.96447         0.32983
C         28.28747        14.99013         0.01653
C         28.22912        16.40280        -0.29616
C         29.54908        14.32339        -0.08672
C         29.39481        17.08152        -0.78054
C         28.08256        19.16521        -0.90484
C         29.30500        18.47792        -1.08796
C         30.11357         2.77880        -3.40020
C         30.25867         4.05460        -2.77006
C         31.47688         4.77538        -2.82060
C         30.53317         6.58564        -1.46651
C         30.65810         7.87559        -0.85649
C         31.60766         6.00016        -2.19183
C         31.91627         8.59040        -0.75239
C         30.66873        10.66136        -0.26309
C         30.79356        12.16167         0.05850
C         31.96084         9.88924        -0.35580
C         31.90915        12.84574        -0.43140
C         30.71899        14.98443        -0.56980
C         30.63674        16.39607        -0.94035
C         31.89690        14.23235        -0.66286
C         31.74437        17.10578        -1.42634
C         30.45708        19.15427        -1.58006
C         31.64840        18.47140        -1.74672
O         28.00651         7.51246         1.54049
O         28.71352        11.37899         1.86151
O         25.94816        11.40851         2.39901
O         25.45693        17.02425         1.81351
O         24.06046        12.32948        -0.48560
O          9.09964         6.00985         2.96250
O         16.41815        17.22908         2.95569
O         19.05227         3.21745         1.57557
O          8.32404        11.60041         2.35002
O          6.66274        13.80739         1.53951
O         30.16413        10.77579        -1.65635
H         30.29285         9.90237        -2.08659
O          4.52506         7.35177        -2.07041
H          3.84692         6.85664        -2.57909
O         18.75315        16.50231         3.33458
H         17.96496        16.11246         3.77899
O         18.74259        10.60594        -0.67654
H         18.07404        11.17932        -1.10610
O         19.44196         9.94568         2.85032
H         20.12636         9.40170         3.29274
O         12.91467        16.56447        -1.24045
H         12.25276        16.86626        -1.89894
O         19.44949         5.64198         2.42851
H         19.21797         4.72680         2.71764
O          4.50926         8.57027         1.42413
H          3.75664         9.19704         1.46163
O          6.95364         7.58314        -1.15856
H          6.25765         7.30726        -1.80515
O         19.38525         0.40364        -1.50430
H         19.17082         0.86546        -2.34357
O          2.98092         6.52252         1.19896
H          3.63221         6.91450         1.82781
O         16.03770         3.05138         2.30986
H         16.12543         3.86290         2.85300
O         19.96410        14.12035         3.25915
H         19.89183        15.04843         3.59155
O         26.09673         5.62258         1.61850
H         26.90315         6.09051         1.95468
O         18.25975         2.84207        -1.98686
H         17.50246         3.45204        -2.11112
O         13.11701        16.96848         2.38218
H         13.88472        16.87298         2.98552
O         11.48460        12.21003        -0.61210
H         10.85339        11.65844        -1.11942
O         16.64552        16.44055        -0.58991
H         15.92828        16.14228        -1.18859
O          8.37169        17.45219        -3.30045
H          7.60087        16.94763        -3.63845
O          8.25623        15.76539         1.98220
H          7.65615        15.13268         2.44977
O         11.89060        12.91794         2.96221
H         11.44300        13.78397         3.14857
O          8.49224         1.88244         3.16075
H          7.69233         2.34813         3.48656
O         13.49679        10.63656         3.20328
H         12.84852        11.31891         3.50470
O          6.46629         5.72323         2.89677
H          7.19845         5.64355         3.55009
O          8.12007         8.39386         3.08830
H          8.68168         7.83681         3.67355
O         10.84015        15.48106         2.53854
H          9.91604        15.84260         2.61281
O          2.06374        12.95137         0.25120
H          1.90264        12.06931         0.64777
O         18.62637         6.32623        -1.08016
H         18.12476         7.06877        -1.47685
O          4.54930        14.10750        -3.25728
H          3.90453        14.43648        -3.92003
O         16.90263        18.39646         3.67437
H         17.86066        18.17144         3.82004
H          0.84775         1.29601        -1.57819
H          0.80807         3.75344        -1.75575
H          2.80735         0.13447        -0.55842
H          0.80399         5.66473        -1.93735
H          0.67842         8.07744        -1.91252
H          0.76872         9.97702        -2.22858
H          0.68745        12.39911        -2.28298
H          0.63268        14.45888        -1.91509
H          0.85701        16.75959        -2.81224
H          2.21341        18.80000        -3.18091
H          5.04667         0.21180         0.32339
H          4.38376        19.98050        -3.00092
H          7.31497         0.23869         1.13697
H          6.83041        19.87619        -2.59074
H          9.77667         0.30557         1.04477
H          9.18037        19.91294        -1.93144
H         12.11593         0.39297         0.38919
H         11.26513        20.23076        -0.63912
H         14.45832         0.48606        -0.26309
H         13.61210        20.34433         0.28145
H         16.79368         0.61936        -0.95344
H         16.11820        20.32248         0.46818
H         19.41897         0.89223         0.50194
H         18.50215        20.26862         0.66899
H         21.77926         0.61900        -1.60197
H         20.82178        20.22180         0.36761
H         24.17012         0.76167        -2.28782
H         23.17650        20.21824        -0.20635
H         26.50884         0.92584        -3.02048
H         25.63675        20.23929        -0.60411
H         28.83795         1.10042        -3.80936
H         28.02194        20.23297        -1.16282
H         30.97252         2.35699        -3.94245
H         32.32823         4.34934        -3.37112
H         32.56527         6.53437        -2.26022
H         32.85391         8.04191        -0.92373
H         32.93131        10.38113        -0.20211
H         32.82512        12.29633        -0.69024
H         32.82338        14.70261        -1.02080
H         32.71027        16.60017        -1.56068
H         30.38868        20.22447        -1.82232
H         32.53511        18.99798        -2.12674
