         252
 CSIRO Nanostructure Databank - Neutral Graphene Oxide Data Set
C         30.36572        31.98411         0.36485
C         30.44548        32.82600        -0.55770
C         30.44501        35.82497        -0.76807
C         30.52293        36.98081        -0.31053
C         30.42118        40.16702         0.31915
C         30.17280        41.31402         0.78678
C         32.73853        29.57301         1.53189
C         31.56547        30.08851         1.68534
C         32.87715        31.36849        -0.52081
C         31.00313        30.73260         0.57585
C         32.79350        32.63496        -1.16004
C         31.54607        33.46668        -1.27970
C         32.79899        35.91638        -1.27100
C         31.55113        35.04873        -1.33687
C         32.79421        37.30270        -0.72624
C         31.54766        37.96448        -0.30393
C         32.74576        40.12974        -0.15525
C         31.51529        39.34596        -0.06267
C         32.81340        41.51003        -0.25603
C         30.89140        42.48828         0.46216
C         32.64063        43.98391         0.98203
C         31.47799        43.52870         1.20653
C         35.52474        28.11878         2.29639
C         35.26282        29.49727         1.85444
C         34.03049        29.90940         1.15167
C         35.31593        31.64991        -0.08655
C         34.07552        30.92338         0.13086
C         35.26915        32.81286        -0.94584
C         34.05312        33.20879        -1.48699
C         35.31123        36.09802        -1.68783
C         33.97430        35.43638        -1.76478
C         35.26225        37.32479        -0.80719
C         33.97087        38.01537        -0.62595
C         35.22864        40.19664        -0.51989
C         34.04189        39.37376         0.05615
C         35.26430        41.61238         0.02776
C         34.01624        42.26562         0.10512
C         35.17515        44.28823         0.92973
C         33.96032        43.58300         0.68720
C         35.28048        45.62864         1.40407
C         37.96260        28.25367         2.61751
C         36.60659        27.72808         2.75070
C         37.94199        29.50473         1.76737
C         36.61374        30.17426         1.50122
C         37.79052        31.93767         0.19009
C         36.53170        31.24078         0.49332
C         37.77637        33.02590        -0.84183
C         36.45412        33.73302        -0.91736
C         37.78229        35.91939        -1.43253
C         36.46251        35.20916        -1.17142
C         37.80415        37.34952        -1.08037
C         36.57298        38.02384        -0.64082
C         37.71495        40.15103        -0.22005
C         36.55459        39.48253        -0.39455
C         37.77289        41.50402         0.44851
C         36.47004        42.27925         0.35638
C         37.73833        44.36494         0.97770
C         36.44752        43.62434         0.77484
C         37.70822        45.86321         1.07521
C         36.40530        46.22929         1.27596
C         40.18016        25.32025         2.22463
C         39.31839        25.99463         2.82767
C         40.47065        27.99631         2.06940
C         39.22575        27.45751         2.71093
C         40.50786        29.46706         1.68310
C         39.11873        29.98907         1.25629
C         40.33099        31.79635        -0.13793
C         39.11816        31.30347         0.55366
C         40.33468        33.05322        -0.71777
C         39.07057        33.70437        -1.15975
C         40.43477        35.93364        -1.55797
C         39.08679        35.16763        -1.54522
C         40.36348        37.33293        -0.96284
C         39.05590        37.96906        -0.69937
C         40.22875        40.20407        -0.68719
C         39.00565        39.41773        -0.27149
C         40.18019        41.66629        -0.27507
C         39.02401        42.29291         0.08257
C         40.20683        44.57428         0.14079
C         39.03667        43.71606         0.52921
C         40.23214        46.01184         0.54557
C         38.84071        46.71891         0.58344
C         40.16381        48.68731         1.14901
C         39.13054        48.02652         1.27402
C         42.30444        25.28835         0.74988
C         41.46494        25.73194         1.74463
C         42.87668        27.85065         1.54978
C         41.57077        27.20098         1.88868
C         42.74513        28.99109         0.60341
C         41.60011        29.72179         0.63152
C         42.81304        31.53715        -0.54447
C         41.47984        30.85675        -0.35300
C         42.82737        32.96824        -0.84891
C         41.57740        33.76324        -0.90071
C         42.80661        35.89040        -0.66505
C         41.61431        35.14566        -1.00918
C         42.77880        37.26320        -0.45901
C         41.51892        37.98004        -0.58331
C         42.73319        40.18004        -0.03712
C         41.46058        39.43487        -0.21790
C         42.75373        41.66358        -0.25582
C         41.46104        42.39912        -0.40299
C         42.78891        44.54656         0.08917
C         41.49985        43.87921        -0.20540
C         42.70004        46.06311        -0.03049
C         41.38952        46.70923         0.43445
C         42.71195        48.77487         0.51585
C         41.31755        48.31972         0.28505
C         43.22214        25.62524        -0.05652
C         45.18097        27.13927        -0.32665
C         44.19013        26.15695        -0.85819
C         45.17673        28.55933        -0.16730
C         43.86757        29.31364        -0.40615
C         45.26236        31.52253        -0.26859
C         43.99535        30.83515        -0.43103
C         45.31202        32.89903        -0.22988
C         44.14394        33.68982        -0.66503
C         45.28831        35.86547         0.02944
C         44.03046        35.13375        -0.28924
C         45.30034        37.34011         0.10255
C         43.93885        37.99014         0.22788
C         45.16751        40.17469         0.42544
C         44.04314        39.43770        -0.26828
C         44.91509        41.47194         0.81447
C         43.91611        42.37388         0.31568
C         45.27498        44.54444         0.78036
C         43.95305        43.80948         0.38102
C         45.20248        45.98378         0.12885
C         43.95715        46.71264         0.63853
C         43.78202        48.18255         0.31614
C         47.38612        27.20553         0.48550
C         46.39626        26.54541         0.07003
C         47.56100        28.58579         0.54391
C         46.37853        29.26748         0.16229
C         47.64493        31.45337         0.69480
C         46.56270        30.74173        -0.20228
C         47.81626        32.93656         0.36886
C         46.59820        33.63369        -0.09288
C         47.77722        35.87292         0.34909
C         46.58420        35.14254        -0.10057
C         47.72838        37.28613         0.46945
C         46.45921        38.01052         0.38410
C         47.76211        40.20471         0.51477
C         46.44641        39.45990         0.87202
C         47.85251        41.62850         0.37046
C         46.78041        42.50030         0.76512
C         47.76644        44.52460        -0.00847
C         46.59390        43.83503         0.38342
C         47.56831        45.92642         0.01135
C         46.58275        46.59679         0.42803
C         50.03786        28.63652         0.13315
C         48.87017        29.20006         0.92434
C         50.23300        31.39763         0.71359
C         48.95033        30.69947         0.70946
C         50.28791        32.90026         0.68076
C         48.97714        33.65007         0.59234
C         50.06781        35.88870         1.02839
C         48.95454        35.12843         0.61854
C         50.15571        37.29279         0.77596
C         48.94216        38.01521         0.57843
C         50.21741        40.13046         0.21828
C         48.96080        39.46248         0.41950
C         50.26144        41.54640        -0.05520
C         49.03865        42.27501        -0.06347
C         50.31251        44.33377        -0.31658
C         48.93889        43.74786        -0.54838
C         51.10686        29.18408        -0.12614
C         52.17237        31.40132        -0.92270
C         51.74650        30.45978         0.15391
C         52.27666        32.63237        -0.71414
C         51.54297        33.54945         0.08538
C         52.74709        35.84514         0.15266
C         51.95420        34.74319         0.61941
C         52.49340        37.04759         0.39803
C         51.41899        37.96185         0.55552
C         52.55393        40.14838        -0.02282
C         51.43574        39.34271         0.26738
C         52.65018        41.38708        -0.24179
C         51.54031        42.24304        -0.25691
C         51.33893        43.63785        -0.44228
O         35.93162        37.23055         0.49948
O         43.69409        33.32973        -1.99755
O         44.43521        35.31117         1.12325
O         43.93880        27.49376         2.03212
O         45.87776        42.02247         1.71027
O         38.39772        32.79575        -2.12816
O         31.30957        34.22507        -2.47563
O         34.03341        34.22433        -2.45902
O         36.31611        34.72075         0.18062
O         31.69057        42.23528        -0.72173
O         50.57377        32.16184         1.93320
O         42.27520        42.03837        -1.60208
O         51.11099        35.20750         1.67015
O         38.32752        35.49471        -2.75086
O         46.81406        34.41833        -1.35102
O         41.93512        39.78900         1.11538
O         35.83199        30.48114         2.72712
O         31.78964        30.48251        -0.63459
O         38.51799        32.35824         1.39452
O         38.70405        43.78492         1.96495
O         40.63788        44.49157        -1.26793
O         41.09449        30.16520        -1.66863
O         39.12082        38.45510         0.78476
O         38.77732        28.28677         3.82252
O         41.08904        31.16653        -2.69013
H         42.03047        31.20507        -2.99080
O         47.09661        31.39858         2.04422
H         47.81328        31.61320         2.67909
O         43.78904        46.57145         2.03017
H         44.62705        46.79115         2.48768
O         47.07836        30.71571        -1.55798
H         47.06373        31.62876        -1.91783
O         45.16569        45.79867        -1.26533
H         44.53747        46.43596        -1.67829
O         34.22850        39.15292         1.46320
H         34.93502        38.46678         1.56533
O         49.10574        28.92434         2.30682
H         50.00663        29.23513         2.53756
O         37.92555        41.17543         1.85948
H         38.17987        42.00779         2.32951
O         40.94000        48.55756        -1.06019
H         41.64381        48.17119        -1.63260
O         38.53673        47.03546        -0.77379
H         39.21755        47.68026        -1.09391
O         44.54950        25.58300        -2.02724
H         43.97192        24.81841        -2.22344
O         45.33171        44.66925         2.20713
H         45.36671        43.75829         2.57836
O         48.70592        43.67148        -1.96539
H         48.55059        44.57875        -2.30436
O         34.95497        40.27914        -1.94660
H         35.66444        40.80079        -2.37677
O         40.79250        36.12369        -2.95689
H         39.94884        36.14949        -3.46749
O         52.62962        30.39409         1.19888
H         52.96624        31.28816         1.41094
O         44.27325        39.36511        -1.69477
H         44.25567        40.27322        -2.06413
O         35.65530        36.55355        -3.01543
H         35.59671        35.79163        -3.63070
O         46.44283        39.35454         2.32136
H         46.21450        40.24035         2.68063
O         40.86890        30.25410         2.84298
H         40.25848        29.99859         3.57173
O         43.64860        38.00099         1.64003
H         43.74437        37.07554         1.96282
O         40.23094        40.19862        -2.13884
H         40.95539        40.80517        -2.42849
O         43.38047        28.88551        -1.70267
H         44.06521        29.10252        -2.36968
O         42.69403        46.39293        -1.46401
H         42.02852        45.77976        -1.86783
