         252
 CSIRO Nanostructure Databank - Neutral Graphene Oxide Data Set
C         30.51801        32.23901         0.98723
C         30.64140        33.37943         0.49050
C         31.15593        35.79114        -2.09251
C         31.49361        37.09663        -2.42856
C         30.97060        40.54184        -2.73065
C         30.85873        41.70032        -2.30689
C         32.72984        29.24921         1.58288
C         31.68241        29.94454         1.57931
C         32.75169        31.66433         0.38481
C         31.54701        31.24608         1.03682
C         32.86126        32.98932        -0.40231
C         31.49570        33.77623        -0.69172
C         32.89821        35.93508        -0.39341
C         31.75471        35.22766        -0.99630
C         32.87999        37.43841        -0.32435
C         31.86966        38.19788        -2.85450
C         33.14109        40.24056        -1.64883
C         32.09927        39.60734        -2.64878
C         32.93331        41.64480        -1.14353
C         31.78688        42.38890        -1.46092
C         32.78962        44.29429        -0.44409
C         31.80802        43.74383        -0.97350
C         35.53728        27.68762         1.88623
C         35.20858        28.87527         1.18592
C         34.01433        29.60027         1.07431
C         35.20158        31.63297         0.17757
C         33.95864        30.93536         0.48173
C         35.24447        33.02474         0.15065
C         33.93892        33.79292         0.35200
C         35.25071        36.00343         0.47199
C         34.01620        35.26292         0.00152
C         35.38345        37.41822        -0.13047
C         34.18611        38.14758        -0.56206
C         35.57572        40.21213        -1.02592
C         34.25968        39.44280        -1.01458
C         35.37294        41.56262        -0.29933
C         34.04767        42.26937        -0.34995
C         35.19431        44.44133         0.30473
C         34.07488        43.77430        -0.10985
C         35.44196        45.82428         0.57072
C         37.97777        27.72139         1.99161
C         36.59889        27.06586         2.09321
C         37.77332        28.83050         0.95043
C         36.46322        29.36613         0.54453
C         37.69515        31.53016        -0.29099
C         36.41106        30.81477        -0.02489
C         37.72151        32.99740        -0.10645
C         36.48514        33.76809         0.08134
C         37.80224        35.85994         0.39338
C         36.50986        35.15061         0.27817
C         37.76612        37.38619         0.56316
C         36.59131        38.06982        -0.08209
C         37.84647        40.19983         0.04164
C         36.73104        39.49561        -0.34495
C         37.93394        41.68280        -0.01702
C         36.61456        42.38649        -0.09110
C         37.78851        44.46050         0.89218
C         36.50287        43.73052         0.55439
C         37.81817        45.98157         0.83154
C         36.44599        46.51175         0.80246
C         40.28026        24.78926         1.88949
C         39.14247        25.41596         1.92076
C         40.28436        27.32522         0.96657
C         39.13606        26.80508         1.59901
C         40.35228        28.74548         0.66807
C         38.98187        29.49601         0.56472
C         40.30640        31.48286        -0.10090
C         39.00972        30.77018        -0.20924
C         40.24565        32.92902         0.02832
C         38.94107        33.60747        -0.08291
C         40.18934        35.62279        -0.66319
C         39.03189        35.06255         0.06365
C         40.08894        37.74697        -0.50613
C         39.06420        38.12364         0.31436
C         40.32599        40.23707         0.18789
C         39.04888        39.56994         0.73846
C         40.36356        41.68653         0.58253
C         39.14577        42.39075         0.51500
C         40.31723        44.41146         1.25072
C         39.12229        43.76702         0.82370
C         40.25727        45.83102         1.74010
C         39.07576        46.67193         1.24649
C         40.26910        48.57507         2.11647
C         39.20179        48.04779         1.73711
C         42.87745        24.65993         1.49758
C         41.53960        24.93564         1.46827
C         42.80321        27.28906         0.56977
C         41.47394        26.53446         0.46039
C         42.79134        28.60833         0.19754
C         41.48420        29.27215        -0.25705
C         42.75012        31.50656        -0.30989
C         41.54048        30.81063        -0.14293
C         42.71081        32.94711        -0.62660
C         41.53949        33.72585        -0.15961
C         42.62886        35.96288        -1.17861
C         41.44451        35.12770        -0.64024
C         42.58905        37.40008        -0.58573
C         41.47881        38.13856        -0.29414
C         42.81878        40.15637         0.39782
C         41.54861        39.38353         0.57028
C         42.83555        41.50766         1.06490
C         41.56298        42.32822         0.91638
C         42.81041        44.28380         1.82725
C         41.53625        43.68418         1.31343
C         42.83195        45.74420         2.23451
C         41.51284        46.52409         2.27168
C         42.85336        48.55357         2.41656
C         41.55422        48.05439         2.33978
C         43.96256        25.23586         1.19412
C         45.28480        27.32624         0.80313
C         44.08785        26.62926         0.86878
C         45.33361        28.80158         0.56262
C         44.00997        29.45002         0.22429
C         45.31187        31.52275        -0.58585
C         44.00162        30.70264        -0.64081
C         45.25842        33.02212        -0.74920
C         43.95801        33.75936        -0.91443
C         45.14497        35.95486        -0.84862
C         43.95623        35.25212        -0.85542
C         45.06329        37.47211        -1.02463
C         43.91922        38.00330        -0.14625
C         45.14550        40.34194        -0.44788
C         43.92483        39.52840        -0.05204
C         45.22396        41.67275         0.30097
C         44.10545        42.27131         0.78909
C         45.35250        44.44593         1.25139
C         44.12194        43.61681         1.43873
C         45.28488        45.91049         1.58525
C         44.13713        46.50350         2.05975
C         43.91149        47.86758         2.33878
C         47.70268        27.46374         0.73221
C         46.62686        26.85683         0.88372
C         47.87567        28.85978         0.42172
C         46.60789        29.50830         0.23630
C         47.78649        31.62721        -0.16422
C         46.58608        30.88258        -0.10631
C         47.72947        33.11694        -0.19075
C         46.42847        33.85233        -0.32456
C         47.64210        35.97778        -0.76290
C         46.42540        35.29513        -0.67392
C         47.59554        37.41973        -1.10064
C         46.37159        38.19298        -0.75086
C         47.78640        40.22105        -0.38050
C         46.42731        39.51979        -0.47014
C         47.65937        41.75191        -0.46466
C         46.58166        42.37392         0.42850
C         47.72067        44.70858         0.14094
C         46.36476        43.91711         0.20314
C         47.64081        45.91067         0.98555
C         46.58734        46.44879         1.37244
C         50.40334        29.14654         0.59842
C         49.06812        29.57832         0.33088
C         50.26167        31.77316         0.15821
C         49.05947        31.01118         0.09229
C         50.27751        33.09286        -0.49804
C         48.93919        33.84929        -0.65340
C         50.13154        36.01388        -1.03816
C         48.91746        35.31749        -0.78103
C         50.13430        37.43433        -1.30610
C         48.84217        38.15518        -1.44831
C         50.14187        40.34383        -1.27716
C         48.78070        39.69864        -1.46437
C         50.25880        41.82945        -1.03030
C         48.90668        42.53815        -0.74308
C         50.30025        44.33831         0.24372
C         48.96697        44.01613        -0.29544
C         51.50605        29.71687         0.65752
C         52.70921        32.00678         0.32828
C         51.54369        31.21818         0.88392
C         52.58669        33.16292        -0.10812
C         51.48513        33.94648        -0.55331
C         52.50911        36.15978        -1.13362
C         51.40489        35.28182        -0.92476
C         52.47343        37.37615        -1.40143
C         51.30801        38.19014        -1.48965
C         52.41174        40.20763         1.56571
C         51.29442        39.63823        -1.55133
C         51.88002        41.12648         0.87728
C         51.25690        42.08860         0.14921
C         51.20707        43.49187         0.37507
O         31.90506        38.05968         0.07114
O         40.51891        45.95297         3.16865
O         39.94858        29.64684         1.70511
O         49.54201        33.14616        -1.77313
O         41.07871        33.45037         1.17154
O         45.57150        32.16908        -1.88909
O         45.16422        43.67393         2.48020
O         37.47935        42.34001        -1.26226
O         47.88003        42.36373        -1.75861
O         44.56341        29.60243         1.55550
O         38.34896        30.96818        -1.48141
O         48.26620        44.90008        -1.18122
O         41.17971        28.96566        -1.56258
O         47.01948        33.61917         0.99962
O         33.30346        40.21587        -3.14446
O         36.23755        29.65738        -0.87339
O         36.95703        43.86277         1.94058
O         34.48127        41.50357         0.83883
O         39.87299        36.72873        -1.43899
O         47.99121        37.60767        -2.52954
O         42.82915        44.69102         3.22932
O         38.74609        35.40421         1.46982
O         38.75983        46.47538        -0.15127
O         43.12017        33.27152        -2.01767
O         44.92727        40.70175        -1.84621
H         44.76003        39.86060        -2.33731
O         45.71345        44.09128        -1.05469
H         46.33981        43.80464        -1.76156
O         41.32559        26.06073        -0.81814
H         40.38421        25.89626        -1.02765
O         52.48598        40.23344        -1.74405
H         52.36413        41.20387        -1.84844
O         42.92388        41.20428         2.49326
H         42.20013        40.56056         2.69891
O         44.71694        37.79817        -2.39286
H         45.38530        37.39184        -2.98510
O         48.37779        39.89163         0.89100
H         47.98410        40.48271         1.57873
O         47.10069        42.13960         1.75779
H         46.42934        42.47590         2.41109
O         50.85959        42.47421        -2.17464
H         50.21481        42.41961        -2.91405
O         48.31485        40.10142        -2.76300
H         47.91839        39.30658        -3.19372
O         44.13405        37.53882         1.22078
H         45.00448        37.87076         1.52931
O         35.97073        40.45610        -2.38844
H         35.17948        40.41664        -2.97291
O         33.63428        33.74566         1.76693
H         34.07810        34.51565         2.19730
O         33.39926        32.70683        -1.69300
H         32.63700        32.49090        -2.28164
O         51.42192        31.47901         2.25650
H         52.19445        31.10788         2.73010
O         38.95529        39.82529         2.13952
H         38.25800        39.22574         2.49668
O         37.50446        37.54805         2.01181
H         38.15262        36.95768         2.46718
O         35.10617        36.17754         1.91568
H         35.87562        36.72743         2.22218
O         43.85079        30.23265        -1.99129
H         43.91138        31.01381        -2.58635
O         40.29261        40.20686        -1.25948
H         39.53509        40.74054        -1.58404
O         42.52810        36.04894        -2.60817
H         42.62304        35.13644        -2.96312
O         30.89860        33.16917        -1.82487
H         30.51565        33.89758        -2.37462
O         41.45645        38.95808         1.95346
H         42.21388        38.34947         2.11508
O         38.26916        28.29830         3.25628
H         38.67621        27.61978         3.83396
