         720
 CSIRO Nanostructure Databank - Neutral Graphene Oxide Data Set
C         23.10128        27.37825        -0.34221
C         23.08476        28.70726        -0.55140
C         23.06671        31.67259        -0.49540
C         23.04537        33.01295        -0.33875
C         23.15127        35.96689        -1.03992
C         23.20632        37.31909        -1.10845
C         23.19866        40.24564        -1.08613
C         23.23546        41.60059        -1.22329
C         23.21622        44.51514        -1.47545
C         23.20907        45.88181        -1.56277
C         25.34243        24.49442        -0.78318
C         24.30744        25.19084        -0.30899
C         25.58288        27.33651        -0.65757
C         24.38419        26.66268        -0.01117
C         25.55521        28.79967        -0.67477
C         24.31292        29.49550        -0.55415
C         25.53925        31.62474        -0.46122
C         24.30003        30.90454        -0.51554
C         25.55668        33.03044        -0.24912
C         24.27858        33.81858        -0.03184
C         25.66188        35.88564        -0.68199
C         24.36119        35.15612        -0.78632
C         25.75848        37.38621        -0.99571
C         24.41451        38.09746        -0.90999
C         25.57875        40.26226        -0.32035
C         24.39143        39.47708        -0.84039
C         25.67953        41.68360        -0.82019
C         24.45819        42.36874        -1.15786
C         25.69388        44.51471        -1.37878
C         24.43017        43.76538        -1.33737
C         25.64998        45.98334        -1.23520
C         24.41451        46.65178        -1.40727
C         25.55773        48.78189        -1.18493
C         24.38877        48.06358        -1.37059
C         27.83578        23.18089        -0.06242
C         27.85792        24.50097        -0.47820
C         26.65440        25.11247        -1.19691
C         27.98387        27.28175        -1.45105
C         26.67592        26.62505        -1.04891
C         27.98373        28.81217        -1.25869
C         26.74611        29.51967        -0.86254
C         28.01694        31.63008        -0.49677
C         26.77130        30.92435        -0.64429
C         28.00572        33.01554        -0.18337
C         26.78193        33.70999        -0.12890
C         27.98560        35.92657         0.48509
C         26.74915        35.18589         0.08765
C         28.02391        37.42146         0.31833
C         26.87139        38.13093        -0.28329
C         28.10162        40.27241        -0.14928
C         26.89421        39.51571        -0.33441
C         28.10570        41.67563        -0.24211
C         26.89034        42.34935        -0.66848
C         28.13619        44.53345        -0.51603
C         26.99238        43.76658        -1.04668
C         28.00317        45.99285        -0.42121
C         26.81710        46.71345        -0.93548
C         28.03341        48.90636        -0.82003
C         26.79296        48.13362        -0.94658
C         28.05439        50.30435        -0.98121
C         30.23363        23.09419         0.44027
C         29.01017        22.46869         0.32001
C         30.20915        24.63839         0.43926
C         29.07465        25.26022        -0.37224
C         30.40969        27.33983        -0.63642
C         29.16666        26.59900        -0.74603
C         30.49982        28.72397        -0.76589
C         29.28485        29.53445        -1.02335
C         30.48848        31.65534        -0.50088
C         29.26004        30.94551        -0.58241
C         30.54134        33.01805        -0.19264
C         29.27565        33.68655         0.17839
C         30.59244        35.88419         0.51938
C         29.27828        35.14326         0.57958
C         30.60979        37.40517         0.56334
C         29.31421        38.16706         0.46720
C         30.60811        40.31843         0.27328
C         29.41058        39.52594        -0.21067
C         30.54750        41.71045         0.27134
C         29.32743        42.42862        -0.03461
C         30.50625        44.69986         0.35363
C         29.27793        43.87132        -0.07198
C         30.56168        46.11051        -0.22003
C         29.30250        46.83556        -0.24797
C         30.50356        48.95645        -0.67563
C         29.27395        48.24861        -0.62774
C         30.48479        50.37417        -0.79892
C         29.25131        51.01956        -0.92432
C         32.82090        20.25413         0.26537
C         31.57874        20.94401         0.42799
C         32.74436        23.05993         0.14950
C         31.47956        22.32758         0.41784
C         32.72040        24.47201         0.69202
C         31.55558        25.11600        -0.13935
C         32.93931        27.33720        -0.11374
C         31.66413        26.59946        -0.39221
C         32.90738        28.81174        -0.15334
C         31.73371        29.43498        -0.54689
C         33.03680        31.62921        -0.62572
C         31.73578        30.89949        -0.76192
C         33.00992        33.07765        -0.39602
C         31.79411        33.76272        -0.18862
C         33.06032        35.91744         0.10431
C         31.78972        35.16500         0.06874
C         33.04998        37.41497        -0.22795
C         31.83939        38.17531         0.26311
C         33.14162        40.26118         0.58236
C         31.84007        39.55114         0.39433
C         33.11336        41.76301         0.52430
C         31.77160        42.52520         0.67534
C         33.04974        44.61340        -0.06126
C         31.74119        43.87174        -0.08137
C         33.04452        46.08580        -0.20438
C         31.75253        46.80697        -0.37669
C         32.96611        48.95768        -0.84668
C         31.75614        48.23276        -0.59774
C         32.99677        50.35891        -0.96387
C         31.76755        51.15017        -0.55943
C         32.91451        53.20615        -1.38255
C         31.77519        52.55613        -1.10784
C         35.34307        18.75551        -0.37694
C         35.31461        20.17913        -0.10156
C         34.03933        20.87717         0.04285
C         35.29168        23.14909        -0.07752
C         34.03812        22.34716        -0.07857
C         35.27224        24.52263         0.05235
C         34.12735        25.17398         0.80941
C         35.32753        27.42541         0.57077
C         34.00305        26.72559         0.76961
C         35.36984        28.79104         0.38558
C         34.15746        29.53058         0.03929
C         35.58516        31.55085        -0.35559
C         34.24131        30.88017        -0.21688
C         35.55434        33.05366        -0.18970
C         34.31278        33.77216        -0.68519
C         35.53877        35.98959        -0.68928
C         34.33299        35.19858        -0.20473
C         35.64663        37.29801         0.09857
C         34.35498        38.06583         0.08439
C         35.47597        40.19168        -0.51102
C         34.47966        39.50387         0.44122
C         35.42256        41.69320        -0.61149
C         34.29005        42.46839        -0.02637
C         35.43425        44.51531        -0.80372
C         34.22196        43.86313        -0.23905
C         35.48031        45.97736        -1.08381
C         34.29002        46.79525        -0.66670
C         35.50857        48.96517        -1.32931
C         34.19423        48.20168        -1.16563
C         35.47169        50.41183        -1.09503
C         34.22269        51.06676        -1.15362
C         35.51620        53.28405        -0.88335
C         34.22402        52.52966        -1.30623
C         35.49427        54.72552        -0.56170
C         37.79557        18.70075        -0.56382
C         36.47437        18.08800        -0.73578
C         37.79094        20.21613        -0.25864
C         36.49811        20.90950        -0.20191
C         37.83807        23.12157        -0.32290
C         36.50584        22.38126        -0.39345
C         37.87027        24.59344        -0.08259
C         36.52734        25.32414         0.01436
C         37.77368        27.32320         0.83841
C         36.56618        26.68849         0.57546
C         37.72043        28.77103         1.34736
C         36.62021        29.51398         0.61056
C         37.77473        31.67992         1.05609
C         36.69730        30.85222         0.39232
C         37.99851        33.01258         0.29740
C         36.70715        33.74203        -0.02871
C         38.04129        35.92897        -0.08186
C         36.86179        35.14037        -0.61593
C         38.08161        37.37437        -0.35698
C         36.82709        38.10180        -0.41339
C         38.00716        40.17207        -1.00863
C         36.77126        39.45030        -0.64925
C         37.99974        41.67306        -0.99835
C         36.71381        42.41060        -0.78839
C         37.93238        44.53071        -0.38618
C         36.70971        43.76970        -0.70952
C         37.97797        45.99366        -0.56295
C         36.82098        46.67044        -1.13703
C         37.90534        48.91282        -0.51640
C         36.82199        48.24529        -1.19112
C         37.73052        50.29226         0.06772
C         36.62218        51.09950        -0.58047
C         37.70162        53.10075         0.43655
C         36.59994        52.45953        -0.33385
C         37.68808        54.60379         0.60315
C         36.50795        55.33782         0.07547
C         40.39873        16.09460        -1.47587
C         39.19822        16.77258        -1.51791
C         40.08362        19.06011        -1.41457
C         39.02455        18.17008        -1.21705
C         40.23688        20.34645        -0.81728
C         39.05022        20.98601        -0.41674
C         40.29342        23.01391         0.19089
C         39.06394        22.36173        -0.12659
C         40.20988        24.30527         0.99637
C         39.03673        25.20014         0.57294
C         40.15595        27.20250         1.52984
C         38.98697        26.54607         0.89909
C         40.17859        28.67432         1.70460
C         39.07061        29.50813         1.42776
C         40.25110        31.78399         1.45069
C         39.09089        30.94594         1.33160
C         40.31436        33.17723         1.13310
C         39.00422        33.92260         1.04382
C         40.34430        36.10442         0.83653
C         39.12451        35.30108         0.44194
C         40.55561        37.26597        -0.14105
C         39.28151        38.04160        -0.35315
C         40.56318        40.22206        -0.39167
C         39.34386        39.45259        -0.74851
C         40.55836        41.61393        -0.39844
C         39.31798        42.37548        -0.74546
C         40.47877        44.60526        -0.29969
C         39.22898        43.80056        -0.27549
C         40.39209        46.05583         0.00211
C         39.14460        46.69876        -0.25337
C         40.35470        48.92214         0.21487
C         39.05327        48.15774        -0.06608
C         40.34926        50.37287        -0.20381
C         39.04427        51.06591         0.10397
C         40.23005        53.12538         0.74063
C         39.01694        52.40142         0.41809
C         40.19274        54.55455         0.96278
C         38.98927        55.30406         0.77452
C         40.24316        57.39337         0.94022
C         39.04747        56.71017         0.76082
C         42.70726        15.98894        -0.45672
C         41.68136        16.68108        -1.13855
C         42.95909        18.79587        -0.81324
C         41.92664        18.04576        -1.40153
C         42.92180        20.28678        -0.79122
C         41.53778        21.06129        -0.75152
C         42.72574        22.97631         0.56425
C         41.49219        22.38683        -0.07533
C         42.68318        24.49770         0.65694
C         41.51167        25.08851         0.98789
C         42.80059        27.11630         1.94072
C         41.46347        26.45483         1.57279
C         42.69608        28.63346         1.98534
C         41.43743        29.15153         2.21261
C         42.74774        31.76682         1.70710
C         41.48601        31.29937         2.00005
C         42.80341        33.13429         1.25837
C         41.55275        33.85787         1.11526
C         42.83378        35.96091         0.97185
C         41.61866        35.28132         0.91911
C         42.89354        37.41784         0.78825
C         41.72396        38.12682         0.26979
C         43.03952        40.23514         0.24412
C         41.72850        39.49177         0.07578
C         42.90456        41.72835         0.42458
C         41.72771        42.35390         0.02855
C         42.85270        44.57115         0.57033
C         41.72958        43.83295        -0.06136
C         42.81509        46.06313         0.62203
C         41.57678        46.77979         0.23855
C         42.84968        48.90937         0.28197
C         41.61969        48.19258         0.21735
C         42.80159        50.35919         0.39816
C         41.56212        51.06746         0.35452
C         42.66940        53.02953         1.33038
C         41.46013        52.40886         0.77004
C         42.62560        54.55247         1.59509
C         41.39456        55.26574         1.24201
C         42.68070        57.36688         1.42003
C         41.43836        56.68043         1.19787
C         43.86940        16.66117        -0.07617
C         45.33251        18.77230        -0.05581
C         44.00494        18.05819        -0.20699
C         45.16430        20.24346         0.28368
C         44.08811        20.95605        -0.13723
C         45.17078        23.12167         0.66026
C         44.02683        22.47153        -0.06816
C         45.19596        24.50190         0.72276
C         43.94997        25.30890         0.42762
C         45.15610        27.32726         1.27166
C         43.99433        26.63370         1.16904
C         45.23721        28.70885         1.85799
C         43.94005        29.44119         2.20953
C         45.24180        31.60982         1.64427
C         43.97346        31.02868         2.25621
C         45.31437        33.05387         1.19282
C         44.02380        33.82338         1.25631
C         45.27250        35.94478         1.50359
C         44.06130        35.24298         1.23407
C         45.15465        37.41649         1.84707
C         44.02397        38.11275         1.13949
C         45.27566        40.31228         1.24743
C         43.94896        39.61148         1.31680
C         45.26814        41.79234         1.44550
C         44.08920        42.47240         0.76947
C         45.32767        44.62804         0.91850
C         44.12948        43.85974         0.71037
C         45.30501        46.07266         0.79520
C         44.10504        46.78283         0.61867
C         45.33257        48.90667         0.47181
C         44.08430        48.20031         0.43627
C         45.29632        50.38054         0.38782
C         44.00800        51.08057         0.60294
C         45.15442        53.16668         1.33631
C         43.97977        52.42321         1.05236
C         45.10983        54.52478         1.76775
C         43.89925        55.27006         1.67296
C         43.86288        56.68911         1.62731
C         47.53038        18.74711         1.10061
C         46.38429        18.08604         0.77584
C         47.60579        20.17490         0.97700
C         46.25362        20.84416         1.15238
C         47.67320        23.10594         1.07056
C         46.30888        22.35577         1.12448
C         47.64087        24.53752         0.76875
C         46.42994        25.21354         0.81729
C         47.68462        27.30506         1.13182
C         46.38762        26.72005         0.62635
C         47.73784        28.76585         1.47512
C         46.47040        29.49635         1.59364
C         47.73810        31.64361         1.47341
C         46.45997        30.90507         1.58409
C         47.77177        33.03769         1.57146
C         46.48070        33.76555         1.88509
C         47.74965        35.93696         1.62804
C         46.51052        35.26379         1.63012
C         47.79672        37.40962         1.73007
C         46.49143        38.17331         1.76461
C         47.75523        40.37356         1.50522
C         46.53613        39.55547         1.08855
C         47.78429        41.82878         1.23122
C         46.56900        42.51537         1.16841
C         47.80202        44.69975         1.36646
C         46.54102        43.93410         1.07606
C         47.77575        46.10296         0.82480
C         46.57449        46.78283         0.72198
C         47.79611        48.95791         0.79287
C         46.55181        48.23293         0.56774
C         47.77418        50.36113         1.01421
C         46.57484        51.13675         0.65233
C         47.70379        53.23724         1.65384
C         46.48068        52.57558         1.06553
C         47.47934        54.46120         2.43860
C         46.29469        55.11908         2.35528
C         50.09060        20.18433         0.74388
C         48.82070        20.89171         0.81587
C         50.01199        23.00535         0.17913
C         48.84797        22.30536         0.73138
C         50.09979        24.47959         0.26907
C         48.89142        25.23880         0.51843
C         50.12162        27.39091         0.44254
C         48.90463        26.61663         0.65305
C         50.21740        28.78936         0.95543
C         49.00595        29.50550         1.28944
C         50.23773        31.64244         1.44228
C         48.96967        30.89831         1.37230
C         50.22006        33.11326         1.27209
C         48.99145        33.79653         1.43491
C         50.19005        35.95205         1.11730
C         48.98365        35.23366         1.40970
C         50.20555        37.42197         1.08418
C         49.04274        38.12687         1.39100
C         50.29163        40.33199         1.18412
C         49.06828        39.59695         1.52181
C         50.29010        41.76295         1.10607
C         49.04944        42.52200         1.16030
C         50.29125        44.66786         1.00377
C         49.06962        43.92983         1.07711
C         50.31764        46.07674         0.91121
C         49.06566        46.79858         0.46255
C         50.20034        48.88255         1.32273
C         49.02425        48.24519         0.87987
C         50.01854        50.18231         1.88170
C         48.90130        51.00447         1.59440
C         50.14116        53.17463         1.79628
C         48.95956        52.44162         1.80558
C         51.27066        20.80369         0.49638
C         52.59890        22.97390         0.03302
C         51.33085        22.20444         0.04727
C         52.56987        24.36672         0.02863
C         51.33197        25.11225         0.14024
C         52.65722        27.26687         0.46115
C         51.37337        26.59475         0.12193
C         52.66933        28.75507         0.49175
C         51.44780        29.43671         0.90152
C         52.76021        31.62034         0.84729
C         51.52727        30.86319         1.25372
C         52.57377        33.05793         0.47035
C         51.40328        33.82381         0.99365
C         52.66675        35.95394         0.63159
C         51.38096        35.23159         0.87077
C         52.60505        37.41598         0.24050
C         51.43074        38.15299         0.85882
C         52.74637        40.27686         0.90918
C         51.45649        39.55629         0.94810
C         52.72795        41.74235         0.75010
C         51.50651        42.47260         0.91799
C         52.74081        44.61604         0.89806
C         51.54000        43.92432         0.94808
C         52.83732        46.07575         1.30847
C         51.53103        46.83247         1.05707
C         52.80552        49.02005         1.53250
C         51.50176        48.21720         1.24070
C         52.69370        50.48218         1.09745
C         51.74782        51.32204         1.77510
C         51.43468        52.65237         1.53192
C         55.05984        22.89760        -0.09679
C         53.86098        22.27119         0.04556
C         55.13834        24.34237        -0.34107
C         53.84313        25.10613        -0.18206
C         55.24685        27.29654         0.27051
C         53.93056        26.50814         0.33555
C         54.97463        28.62588        -0.46131
C         53.84100        29.40077         0.19579
C         55.05098        31.55016        -0.38591
C         53.94810        30.86825         0.33193
C         54.95248        33.01048        -0.59400
C         53.74013        33.76137        -0.12768
C         55.11250        35.95417        -0.29605
C         53.88853        35.22036         0.15980
C         55.11877        37.39372        -0.03636
C         53.97612        38.07245         0.31809
C         55.13649        40.31279         0.04232
C         54.03671        39.52457         0.62155
C         55.08067        41.68474         0.00509
C         53.91061        42.40521         0.44358
C         55.12811        44.60891         0.06884
C         53.96429        43.86691         0.62109
C         55.19628        46.11881        -0.07877
C         54.10811        46.84248         0.77726
C         55.00509        49.20811         0.08286
C         54.08273        48.35632         0.90990
C         54.58151        50.39850        -0.46862
C         53.43181        51.02937         0.07078
C         57.38991        24.46607        -1.33486
C         56.49680        25.03368        -0.24408
C         57.44119        27.26349        -0.89877
C         56.39307        26.55097        -0.39178
C         57.40717        28.72533        -1.01678
C         56.24925        29.41443        -0.67395
C         57.44377        31.57312        -1.07478
C         56.19355        30.85217        -0.72183
C         57.44833        33.06485        -1.16616
C         56.15814        33.80164        -0.96629
C         57.58611        35.89405        -0.82113
C         56.23858        35.25897        -0.67813
C         57.61921        37.39806        -0.73794
C         56.41181        38.12282        -0.19736
C         57.43734        40.31918        -1.08702
C         56.39357        39.61844        -0.30077
C         57.30542        41.69953        -1.31545
C         56.09606        42.39921        -0.81122
C         57.11732        44.67449        -1.54870
C         56.05849        43.88004        -0.84429
C         56.53065        45.89531        -2.16385
C         55.40758        46.49321        -1.54202
C         55.09704        47.84414        -3.55865
C         54.66170        47.42945        -2.28147
C         58.43828        25.16070        -1.78186
C         59.71928        27.29688        -1.99588
C         58.73147        26.51303        -1.18274
C         59.63901        28.63205        -2.14652
C         58.55045        29.42812        -1.59474
C         59.62966        31.59393        -2.27233
C         58.55027        30.81336        -1.69630
C         59.59088        32.93717        -2.43786
C         58.38849        33.78894        -2.11201
C         59.51477        36.04210        -2.44649
C         58.78216        35.14879        -1.47941
C         59.48481        37.40690        -2.38379
C         58.60475        38.15432        -1.54380
C         59.50684        40.33384        -2.36301
C         58.52838        39.58852        -1.64942
C         59.38635        41.70287        -2.55149
C         58.27723        42.41593        -2.05846
C         58.64805        44.48797        -3.55123
C         58.16933        43.89580        -2.28227
C         58.08937        45.60936        -4.06754
C         56.97276        46.30125        -3.44044
C         56.25988        47.31865        -4.11087
O         53.28615        26.63690         1.64684
O         37.99509        19.20162         0.79674
O         52.61492        33.34709        -0.98362
O         40.57058        26.47269         2.76687
O         55.34016        43.11976        -1.88823
O         34.67233        24.88402         2.09899
O         51.06750        31.21015         2.59226
O         55.20145        33.41900        -2.02000
O         26.62936        44.06783        -2.43440
O         50.97397        50.68159         2.76881
O         57.97442        32.45301         0.02669
O         28.41253        46.51877         0.87327
O         30.80320        36.63727         1.78590
O         54.77824        47.52250         1.88077
O         46.97095        22.82349         2.33292
O         50.64455        27.25293        -0.94587
O         41.37964        44.30227        -1.42052
O         34.97763        40.78332        -1.73017
O         38.79943        42.22297        -2.09791
O         55.17173        44.24734         1.48193
O         42.48366        53.55916         2.67171
O         53.68056        35.55544         1.59091
O         34.73561        48.48867        -2.47621
O         58.47442        44.68422        -1.05095
O         37.31448        25.31197        -1.22160
O         25.32322        35.11790        -1.89509
O         46.10335        50.91975        -0.72240
O         42.39480        20.97643        -1.96310
O         48.39324        40.08203         2.76170
O         28.68753        29.44765        -2.38367
O         39.48048        48.58353         1.31666
O         41.37393        30.31637         2.97230
O         33.96176        35.43789         1.17132
O         35.20964        45.05404        -2.17700
O         26.95877        35.57338         1.47435
O         32.71134        26.78452        -1.44199
O         37.21785        22.77177        -1.61292
O         29.27592        34.13268         1.61468
O         47.33560        53.43568         0.23373
O         35.19566        53.00198        -2.28460
O         42.53540        45.24988         1.83887
O         41.08392        18.67830        -2.32375
O         28.43886        38.08580         1.59822
O         38.46678        44.04066         0.93668
O         33.21435        22.84205        -1.21454
O         54.40607        24.85409        -1.50480
O         33.98729        46.74428         0.75750
O         56.85542        38.93582         0.93572
O         44.78524        28.87342         3.25939
O         50.47681        22.46851        -1.10648
O         37.13888        47.41481        -2.34555
O         58.10554        36.55070         0.38372
O         53.65820        39.85915         1.99590
O         38.79739        39.64232        -2.10688
O         32.47523        31.28419        -1.97638
O         47.20433        37.97412         2.99896
O         33.26299        41.02975         1.83126
O         53.88246        31.36587         1.74458
O         37.33676        53.70246         1.71808
O         47.77663        27.68210         2.52540
O         49.14193        46.77916        -1.01616
H         48.40269        47.33245        -1.34975
O         31.62535        42.79953         2.08635
H         31.96809        42.01076         2.57103
O         37.29289        50.12865         1.45312
H         38.01376        49.64212         1.92169
O         59.34499        26.25764         0.13137
H         59.51150        27.12889         0.55098
O         40.08885        36.65734         2.14846
H         39.62001        35.96266         2.66826
O         43.78843        40.04478        -1.00648
H         43.26264        40.44002        -1.73502
O         47.80584        44.86915         2.83954
H         47.53833        44.01178         3.23746
O         43.07667        26.71111         3.30967
H         42.25931        26.87617         3.83114
O         31.49837        24.54419        -1.46430
H         32.23067        24.92781        -1.99690
O         43.34470        39.83647         2.63110
H         43.66271        39.09932         3.21192
O         46.72044        39.27301        -0.35700
H         45.85574        39.43476        -0.80501
O         44.75385        37.46022         3.26242
H         45.59011        37.39579         3.78600
O         34.41545        33.81098        -2.15036
H         34.77127        32.92988        -2.43038
O         38.60131        34.20487         2.41438
H         38.08661        33.43025         2.75838
O         45.67309        33.01633        -0.22711
H         44.90660        32.66647        -0.72816
O         28.17891        27.03538        -2.87031
H         28.68874        27.80701        -3.22142
O         56.48643        46.37453         0.55850
H         56.44156        45.98501         1.46124
O         35.98555        36.95176         1.46682
H         35.84464        37.76659         2.00724
O         45.90077        18.76254        -1.41715
H         45.22175        19.11654        -2.03105
O         31.49012        43.57192        -1.49001
H         32.33582        43.30661        -1.91176
O         33.58657        27.09400         2.11234
H         34.04211        26.40905         2.68038
O         44.06465        31.37607         3.65862
H         44.62562        30.68898         4.08820
O         29.65305        39.19998        -1.61779
H         29.69747        40.03810        -2.12503
O         26.79541        24.77472        -2.60097
H         27.45845        25.39172        -2.99582
O         54.49457        28.24683        -1.78260
H         54.37871        29.05725        -2.32110
O         24.20353        34.19620         1.37292
H         24.28093        33.38449         1.91642
O         52.96261        48.98388         2.95636
H         53.10889        48.03967         3.20655
O         30.42774        44.97554         1.75851
H         30.51700        44.13095         2.25958
O         45.02828        42.00173         2.88922
H         44.26238        41.41786         3.12552
O         46.34491        27.00459        -0.79471
H         45.51856        26.58031        -1.14825
O         37.20028        31.97821         2.37202
H         37.07200        31.11981         2.83690
O         39.97303        23.86226         2.36482
H         40.01430        24.67715         2.92614
O         57.66705        34.07117        -3.33742
H         56.80467        33.60064        -3.33205
O         26.14336        37.48435        -2.40191
H         25.73371        36.70966        -2.85673
O         44.08353        22.95875        -1.44370
H         43.45286        22.40004        -1.97352
O         25.30080        40.41694         1.12201
H         25.44060        39.54607         1.55317
O         52.96753        46.05510         2.75960
H         53.75673        45.50939         2.97365
O         52.28277        37.37112        -1.19683
H         52.02146        38.27023        -1.48754
O         43.95798        25.63259        -1.00339
H         44.00850        24.75713        -1.47621
O         55.68424        27.57625         1.60815
H         54.91533        27.42937         2.20914
O         56.27215        48.85589        -0.12312
H         56.51134        48.02173         0.36544
O         53.49529        47.91806        -1.76614
H         53.09569        48.55045        -2.39653
O         32.87722        37.45746        -1.69716
H         33.74700        37.18492        -2.10029
O         38.62095        32.65015        -0.95670
H         38.32833        33.30338        -1.63746
O         40.48172        50.33872        -1.66667
H         40.57363        51.26070        -1.98681
O         37.27872        28.72628         2.74418
H         37.85987        28.09991         3.22644
O         35.88779        31.41877        -1.80591
H         35.81692        30.46741        -2.03938
O         40.90834        36.66089        -1.42088
H         40.92969        37.37145        -2.09632
O         59.73558        34.81891        -0.44756
H         59.65392        35.51358         0.24945
O         31.85678        51.30262         0.89980
H         31.83267        50.40667         1.29902
O         29.92830        25.13391         1.76271
H         30.68868        24.87142         2.34080
O         32.29857        24.31647         2.06798
H         33.15340        24.40066         2.59122
O         46.26182        33.63535         3.31415
H         47.00489        34.06719         3.78479
O         37.25341        34.83811        -1.99640
H         37.41638        35.69503        -2.44951
O         42.72572        22.49297         1.93468
H         41.89322        22.80313         2.36299
O         45.83957        20.48338         2.51106
H         46.23240        21.15636         3.11348
O         24.57142        26.80676         1.43500
H         25.35211        26.27019         1.68798
O         35.30833        36.34584        -2.07109
H         35.11545        35.49073        -2.53931
O         57.08191        24.73059         1.03910
H         57.97227        25.16154         1.04679
O         35.20651        39.54286         1.71888
H         34.72256        40.18299         2.29962
H         22.16382        26.80217        -0.34183
H         22.12698        29.21449        -0.73436
H         22.11388        31.14337        -0.63649
H         22.07805        33.53599        -0.31593
H         22.18312        35.45766        -1.14846
H         22.26024        37.85813        -1.25704
H         22.23878        39.73429        -1.23941
H         22.29538        42.11911        -1.45189
H         22.25562        43.98604        -1.52709
H         22.25875        46.41867        -1.69296
H         25.21907        23.42142        -0.99443
H         23.36129        24.68031        -0.06877
H         25.50409        49.87821        -1.19079
H         23.43289        48.58980        -1.50208
H         26.90500        22.60267        -0.15052
H         27.12209        50.86541        -1.12413
H         28.93280        21.37329         0.39437
H         29.20185        52.11419        -0.99188
H         32.78596        19.15703         0.33794
H         30.68367        20.32474         0.58820
H         32.89139        54.24257        -1.74948
H         30.82169        53.09456        -1.19954
H         34.37981        18.23348        -0.46471
H         34.64810        55.31880        -0.93701
H         36.40403        17.06745        -1.13875
H         36.45050        56.42423         0.23451
H         40.35839        14.99580        -1.53672
H         38.28616        16.16085        -1.60344
H         40.26112        58.49172         0.91320
H         38.13045        57.29413         0.60760
H         42.59912        14.91620        -0.24390
H         42.68108        58.46572         1.38459
H         44.68287        16.07963         0.37772
H         44.79926        57.25496         1.73224
H         48.39109        18.17982         1.48900
H         46.33272        16.99684         0.91104
H         48.30027        54.86770         3.04654
H         46.17484        56.07675         2.88210
H         50.09917        19.11597         1.00136
H         50.03848        54.27096         1.76164
H         52.20384        20.23331         0.60373
H         52.15558        53.31245         1.02987
H         55.99550        22.33353         0.02579
H         53.85204        21.18306         0.19704
H         55.26453        50.96843        -1.10960
H         53.23039        52.06753        -0.23052
H         57.15904        23.46794        -1.73666
H         54.51348        48.59888        -4.10438
H         59.10759        24.75982        -2.55797
H         60.56944        26.74736        -2.42765
H         60.42181        29.14861        -2.71929
H         60.54314        31.06511        -2.58051
H         60.46676        33.44275        -2.87056
H         60.21576        35.56230        -3.14456
H         60.13872        37.95962        -3.07341
H         60.39484        39.82975        -2.76546
H         60.17654        42.23772        -3.09640
H         59.43180        43.96285        -4.11708
H         58.44527        45.99670        -5.03412
H         56.59798        47.65960        -5.09956
