         344
 CSIRO Nanostructure Databank - Neutral Graphene Oxide Data Set
C          1.38501         3.37337         0.55013
C          0.16379         4.02660         0.58671
C          1.26677         6.20206         0.39870
C          0.09860         5.42621         0.51981
C          1.20357         7.65515         0.25045
C          0.04741         8.39066         0.40315
C          1.14621        10.56564         0.02819
C          0.02789         9.81460         0.31994
C          1.13681        12.03179         0.03916
C         -0.07842        12.75428        -0.06717
C          1.11194        14.88428        -0.05068
C         -0.08743        14.13980        -0.08972
C          1.12126        16.33769        -0.02819
C         -0.08347        17.10106        -0.15018
C          1.10133        19.23342         0.02205
C         -0.08051        18.48679        -0.17042
C          1.14029        20.66559         0.06713
C         -0.06753        21.41830         0.18964
C          1.14624        23.53487         0.10300
C         -0.06202        22.79067         0.23908
C          1.14962        24.97520         0.07753
C         -0.04970        25.74344         0.24192
C          1.16651        27.85926         0.18877
C         -0.02812        27.12918         0.32941
C          1.25164        29.24882         0.46034
C          3.84564         3.45416         0.47148
C          2.59557         4.11628         0.45931
C          3.76079         6.29909         0.29619
C          2.52924         5.54502         0.36968
C          3.73160         7.69521         0.07106
C          2.43316         8.35771        -0.16620
C          3.69154        10.66807        -0.44240
C          2.39494         9.86675        -0.34407
C          3.61967        11.99204         0.37204
C          2.34571        12.74807         0.09790
C          3.58526        14.88841        -0.07072
C          2.35169        14.17154         0.00984
C          3.59243        16.31917        -0.02839
C          2.34153        17.02178         0.10552
C          3.65714        19.24955         0.28235
C          2.34049        18.48675         0.27049
C          3.63443        20.68059        -0.09216
C          2.37478        21.37483        -0.03384
C          3.58108        23.52339        -0.28257
C          2.36559        22.81331        -0.07338
C          3.57565        24.92222        -0.27448
C          2.37822        25.65190        -0.11146
C          3.65662        27.80894         0.13035
C          2.38640        27.14951        -0.32651
C          3.70603        29.16653         0.45015
C          2.46812        29.90173         0.53971
C          6.29153         3.52983         0.69360
C          5.06712         4.17547         0.51873
C          6.20615         6.38153         0.41679
C          5.00847         5.62616         0.43447
C          6.16098         7.77199         0.28312
C          4.92982         8.46345         0.09229
C          6.16235        10.60170         0.03041
C          4.92760         9.88837        -0.05826
C          6.16873        12.09410         0.31472
C          4.86010        12.78689         0.09815
C          6.05131        14.86668        -0.42209
C          4.83764        14.16459        -0.11973
C          5.96716        16.29574        -0.70827
C          4.78491        17.03231        -0.25317
C          6.10350        19.21343        -0.45902
C          4.96328        18.46193         0.19002
C          6.07733        20.62791        -0.46289
C          4.82906        21.33823        -0.39023
C          6.10685        23.52241        -0.50658
C          4.80718        22.79602        -0.79427
C          6.12009        24.89174        -0.37792
C          4.84651        25.67852        -0.58990
C          6.19130        27.69589         0.36055
C          4.86436        26.99322         0.16544
C          6.18308        29.16478         0.48231
C          4.97334        29.82841         0.62564
C          8.80019         3.55823         0.63650
C          7.54456         4.30262         0.98291
C          8.61265         6.31510        -0.08031
C          7.50523         5.69819         0.41195
C          8.54726         7.77375        -0.48273
C          7.47580         8.48566         0.36327
C          8.66967        10.71704         0.14764
C          7.37769         9.94825         0.08343
C          8.55105        12.00426        -0.66350
C          7.34336        12.80987        -0.28659
C          8.54160        14.90273        -0.84712
C          7.29856        14.17043        -0.54870
C          8.51159        16.28779        -0.99478
C          7.25779        17.05522        -1.02400
C          8.50896        19.23190        -0.87708
C          7.29356        18.52507        -0.78838
C          8.54199        20.63005        -0.65214
C          7.31503        21.34841        -0.56139
C          8.59015        23.43686        -0.43554
C          7.34528        22.77010        -0.51221
C          8.64678        24.92446        -0.68283
C          7.36971        25.63493        -0.30290
C          8.65377        27.77946        -0.36795
C          7.40028        26.98774        -0.09289
C          8.64397        29.17374         0.22597
C          7.44913        29.83320         0.48523
C         11.17932         3.52580         0.14813
C          9.91986         4.17065         0.10800
C         11.11891         6.33651        -0.44273
C          9.82642         5.54008        -0.53321
C         11.07372         7.76678        -0.50599
C          9.88200         8.49066        -0.37185
C         11.06522        10.65729        -0.46412
C          9.88110         9.91268        -0.30862
C         11.03841        12.07747        -0.60548
C          9.83782        12.79572        -0.66701
C         11.05327        14.93205        -0.99733
C          9.80437        14.19898        -0.84984
C         11.02619        16.31335        -1.13299
C          9.75503        17.01944        -1.25144
C         11.06131        19.22655        -0.92886
C          9.77119        18.54739        -1.21679
C         11.04106        20.59814        -0.53728
C          9.79388        21.31138        -0.48527
C         10.99762        23.37139         0.30321
C          9.78239        22.71068        -0.29268
C         11.06368        24.86176         0.09781
C          9.88668        25.59603        -0.12795
C         11.09918        27.67216         0.28809
C          9.90384        26.99762        -0.03447
C         11.10827        29.13429         0.37998
C          9.89420        29.83147         0.37780
C         13.61839         3.57609        -0.00077
C         12.39215         4.22222        -0.10730
C         13.57621         6.40860        -0.16311
C         12.33880         5.66253        -0.35957
C         13.55278         7.79078        -0.13644
C         12.37761         8.49455        -0.75549
C         13.51205        10.66455        -0.30152
C         12.35192         9.97604        -0.48617
C         13.48846        12.16633        -0.11290
C         12.34913        12.73178        -0.95682
C         13.53736        14.88880        -1.10872
C         12.32522        14.23550        -0.97037
C         13.54031        16.31477        -1.49471
C         12.24422        17.08549        -1.43309
C         13.52583        19.16361        -0.78674
C         12.26656        18.53447        -1.09694
C         13.51265        20.54544        -0.33238
C         12.28152        21.27708        -0.28398
C         13.50845        23.34113         0.30559
C         12.29966        22.65868         0.04666
C         13.52099        24.77531         0.52575
C         12.28174        25.52979         0.37184
C         13.52186        27.64927         0.97100
C         12.28710        26.93987         0.47588
C         13.56375        29.10431         0.57231
C         12.35436        29.80321         0.45161
C         16.12177         3.56128         0.18934
C         14.90329         4.27590        -0.32623
C         15.94876         6.44073         0.51734
C         14.80971         5.71985         0.10225
C         15.97405         7.85331         0.57722
C         14.66765         8.59463         0.46674
C         15.94050        10.77473         0.38899
C         14.82926         9.94051        -0.26725
C         16.00986        12.16425        -0.20708
C         14.80664        12.83659        -0.46132
C         16.05588        14.85400        -1.02742
C         14.80629        14.18934        -0.88739
C         16.10526        16.31340        -1.32495
C         14.82139        17.08738        -1.44950
C         15.97991        19.04267        -0.40738
C         14.74560        18.49435        -0.99149
C         15.93611        20.41659         0.21576
C         14.70456        21.20616         0.04607
C         15.99416        23.26594         0.56129
C         14.73835        22.60164         0.29939
C         15.99612        24.70420         1.04736
C         14.73498        25.46464         0.70704
C         16.01842        27.57475         0.58408
C         14.78905        26.87981         0.70505
C         16.02277        29.02151         0.48318
C         14.80212        29.74189         0.45785
C         18.46864         3.56865         0.95218
C         17.21310         4.22637         0.68545
C         18.45647         6.45992         1.06123
C         17.14692         5.68440         0.92609
C         18.45434         7.89281         0.73137
C         17.21046         8.59382         0.61117
C         18.46774        10.68961         0.20709
C         17.23785        10.00044         0.37190
C         18.49196        12.09943        -0.09165
C         17.25322        12.82208        -0.35661
C         18.58881        14.86726        -1.05767
C         17.26423        14.18304        -0.75853
C         18.54028        16.37358        -0.85942
C         17.35423        17.03285        -0.98078
C         18.54897        19.18636        -0.50273
C         17.28526        18.54918        -1.00795
C         18.56881        20.42020         0.23863
C         17.21413        21.12501         0.52104
C         18.46716        23.27337         1.02120
C         17.19157        22.58045         0.58595
C         18.44735        24.73041         0.61098
C         17.27210        25.42284         0.64733
C         18.46802        27.56846         0.27868
C         17.24956        26.86546         0.46421
C         18.46282        29.00596         0.22769
C         17.24600        29.70097         0.32663
C         19.64921         4.27191         1.06705
C         20.90315         6.40685         0.79558
C         19.70450         5.69188         0.97682
C         20.90105         7.78515         0.63029
C         19.69238         8.54985         0.56457
C         20.92051        10.69706         0.24379
C         19.70703         9.97591         0.32866
C         20.92878        12.06626         0.05853
C         19.72306        12.78780        -0.12449
C         20.83302        14.99286         0.02242
C         19.75647        14.23025        -0.33757
C         20.89032        16.40905        -0.22492
C         19.79272        17.09564        -0.66096
C         21.05812        19.31868        -0.61502
C         19.81638        18.58480        -1.04789
C         21.03872        20.56274        -0.09584
C         19.80262        21.24691         0.25271
C         20.96053        23.36929         0.81156
C         19.75545        22.56728         0.62388
C         20.93874        24.70509         0.64874
C         19.71352        25.35896         0.06390
C         20.87869        27.58929        -0.06095
C         19.71200        26.87149         0.14267
C         20.87275        29.00700        -0.09731
C         19.69590        29.70309         0.04726
O          6.35877        16.65870        -2.11302
O          2.27767         8.98190        -1.50876
O         17.94127        20.47586         1.60899
O         17.63414         6.09895         2.23787
O          5.52593        26.97747         1.46902
O         15.62820        16.76876        -2.66678
O         15.83519        19.20031         1.03818
O          2.98559        18.96039         1.55065
O          9.71053        17.84701        -2.49376
O         12.81318        16.64854        -2.72541
O         10.77389        23.21531         1.76232
H         11.56930        23.56537         2.21856
O         15.58037        10.98633         1.79253
H         16.34518        11.41123         2.23454
O         17.17865        18.92829        -2.43358
H         16.57674        18.25285        -2.85680
O         15.24198         9.66582        -1.62162
H         14.45393         9.33074        -2.11352
O         12.65011        12.33186        -2.33014
H         12.00775        12.77203        -2.92530
O          8.77388        25.06161        -2.13846
H          8.67398        26.02479        -2.33916
O          8.32715        11.57166        -2.05132
H          8.16332        12.37235        -2.59427
O          4.66884        22.81451        -2.25836
H          4.74488        23.75733        -2.53576
O         18.42709        23.23358         2.49503
H         18.35781        22.27825         2.73292
O         15.03904         4.28709        -1.80588
H         15.89368         4.71704        -2.02152
O         13.40633        27.67412         2.44480
H         13.63257        26.77689         2.77243
O          8.67644        27.96008        -1.83682
H          9.45889        28.51360        -2.04826
O         19.84161        18.61424        -2.50469
H         18.90538        18.71320        -2.81576
O          3.60476        11.57539         1.78478
H          3.27204        12.33203         2.31354
O         13.22616        12.44479         1.28173
H         13.89224        11.92903         1.80095
O         12.63602         8.38254        -2.21591
H         12.54896         7.43354        -2.45556
O          4.80242        25.97922        -2.02015
H          3.94151        26.44527        -2.19256
O          7.96416         8.38293         1.75559
H          7.22475         8.65394         2.34098
O          6.34963        12.15691         1.79178
H          5.50789        11.80476         2.17195
O          9.60497         5.30950        -1.96351
H          9.17069         6.11972        -2.32154
O         14.19696         8.88402         1.82524
H         14.27255         8.05692         2.34603
O          2.36139        27.31455        -1.82436
H          2.25803        28.27561        -1.99892
O          8.17493         7.82684        -1.88708
H          8.19743         8.76703        -2.17182
O          7.58865         4.48295         2.45696
H          8.27546         5.15728         2.64737
O          5.44960        18.30109         1.57424
H          4.64230        18.32499         2.14544
O         15.98775        24.61633         2.50943
H         16.83779        24.17314         2.76921
O          8.93908        11.06990         1.52659
H          8.89187        10.23434         2.04403
O         18.83328        14.64377        -2.48226
H         18.07879        15.02635        -2.97902
O          3.83662        11.08682        -1.82148
H          3.53283        10.33127        -2.37524
O         19.72605        25.02395        -1.36956
H         19.00344        25.53048        -1.79710
H          1.43193         2.27653         0.60696
H         -0.76666         3.44714         0.66620
H         -0.88634         5.91180         0.53974
H         -0.89274         7.89006         0.67369
H         -0.91622        10.31919         0.57015
H         -1.03192        12.21336        -0.13466
H         -1.05528        14.65563        -0.14698
H         -1.04110        16.58222        -0.28701
H         -1.03323        19.00838        -0.33621
H         -1.02404        20.88840         0.29239
H         -1.01782        23.31509         0.36937
H         -1.01040        25.22969         0.37753
H         -0.95692        27.66839         0.57047
H          0.32369        29.80127         0.67329
H          3.86824         2.35581         0.53117
H          2.50359        30.97528         0.77268
H          6.32421         2.43101         0.74268
H          4.97227        30.91929         0.77231
H          8.90048         2.54074         1.04896
H          7.47824        30.89686         0.77037
H         11.23249         2.48168         0.49414
H          9.90090        30.91323         0.58409
H         13.64650         2.51907         0.30533
H         12.37400        30.90072         0.36385
H         16.19012         2.47861        -0.00034
H         14.83399        30.82483         0.26180
H         18.49119         2.46920         0.94120
H         17.24515        30.79921         0.26142
H         20.59726         3.71974         1.15085
H         21.85699         5.85968         0.77554
H         21.86723         8.28917         0.49964
H         21.88176        10.17608         0.34112
H         21.89195        12.59078         0.00275
H         21.70440        14.52889         0.50673
H         21.84057        16.92799        -0.03707
H         22.02418        18.86998        -0.88930
H         21.98817        21.08985         0.08021
H         21.88756        22.86774         1.13056
H         21.84031        25.30356         0.84179
H         21.83260        27.06386        -0.20725
H         21.81974        29.54334        -0.24912
H         19.68644        30.80198         0.01330
