         344
 CSIRO Nanostructure Databank - Neutral Graphene Oxide Data Set
C          1.65987         2.15976         1.52343
C          1.45820         3.44069         1.06415
C          2.83806         1.44476         1.23064
C          2.42813         4.08490         0.11799
C          1.28650         6.31893         0.26988
C          1.24161         7.69385         0.28522
C          2.50594         5.59166         0.26685
C          2.43394         8.47574         0.55230
C          1.30029        10.67754         0.95030
C          1.42953        11.93278         1.42932
C          2.42763         9.96808         0.25151
C          2.68776        12.65602         1.38316
C          1.63813        14.75874         2.25737
C          1.63272        16.16729         2.38805
C          2.75143        14.03223         1.82361
C          2.73538        16.94584         2.04999
C          2.70688        18.37462         1.92380
C          3.92153         2.09390         0.56204
C          3.77697         3.42755         0.14031
C          5.15931         1.41051         0.35169
C          4.88372         4.14240        -0.57453
C          3.73520         6.27009         0.15461
C          3.78322         7.71737         0.41332
C          4.93523         5.61892        -0.24035
C          4.95852         8.48713        -0.00596
C          3.77261        10.61313         0.51981
C          3.83774        11.96510         0.94253
C          4.94901         9.90428         0.16228
C          5.21587        12.57867         1.13328
C          4.03986        14.73590         1.73529
C          4.01641        16.26932         1.80458
C          5.18079        14.08155         1.05686
C          5.05623        17.00781         1.08431
C          3.80032        19.07830         1.48949
C          5.00302        18.41692         1.02751
C          6.29887         2.08013        -0.14264
C          6.22298         3.47794        -0.44141
C          7.54387         1.40944        -0.28237
C          7.38469         4.21405        -0.70863
C          6.12174         6.34491        -0.47941
C          6.12293         7.78879        -0.42980
C          7.34578         5.65539        -0.79870
C          7.31247         8.49845        -0.76939
C          6.16313        10.64855        -0.11229
C          6.25253        11.97770         0.21460
C          7.22776         9.99402        -0.95685
C          7.41236        12.76465        -0.15417
C          6.21067        14.80773         0.52010
C          6.09782        16.27729         0.39425
C          7.40805        14.15975        -0.00231
C          7.36456        17.09385        -0.01276
C          6.16228        19.15570         0.67489
C          7.38125        18.52036         0.35703
C          8.69545         2.09431        -0.69480
C          8.63327         3.52990        -0.87071
C          9.93151         1.40669        -0.86864
C          9.77787         4.25609        -1.24670
C          8.53526         6.37803        -1.05013
C          8.51205         7.82034        -1.04749
C          9.76834         5.68066        -1.30251
C          9.74652         8.55122        -1.24883
C          8.55969        10.68960        -0.84667
C          8.58620        12.08589        -0.61730
C          9.74749         9.98971        -1.12558
C          9.79824        12.82684        -0.78830
C          8.59142        14.91906        -0.31233
C          8.61564        16.35907        -0.17040
C          9.77756        14.24274        -0.65511
C          9.82982        17.07305        -0.14517
C          8.62172        19.17999         0.39928
C          9.84039        18.49670         0.15297
C         11.08742         2.06998        -1.29301
C         10.98518         3.50732        -1.61671
C         12.33827         1.42688        -1.40813
C         12.29051         4.29951        -1.74826
C         10.99029         6.41692        -1.45609
C         10.96518         7.85792        -1.40993
C         12.24489         5.74822        -1.52044
C         12.20660         8.58802        -1.48905
C         10.98170        10.71841        -1.22782
C         11.00330        12.12986        -1.09443
C         12.18836         9.99488        -1.47094
C         12.25856        12.86510        -1.16860
C         10.97999        15.04536        -1.08392
C         11.05501        16.40844        -0.44309
C         12.27032        14.28393        -1.01837
C         12.27962        17.08427        -0.36492
C         11.07283        19.17030         0.20071
C         12.30053        18.49789        -0.02819
C         13.55962         2.13404        -1.54393
C         13.55437         3.57855        -1.57471
C         14.79625         1.44394        -1.46531
C         14.73170         4.31595        -1.43570
C         13.46574         6.43820        -1.33274
C         13.46037         7.88689        -1.33481
C         14.70877         5.73776        -1.27033
C         14.64934         8.57100        -1.08185
C         13.42635        10.74732        -1.64487
C         13.45146        12.17927        -1.40186
C         14.77384         9.97405        -1.39631
C         14.76155        12.89194        -1.60918
C         13.50167        14.99172        -0.93710
C         13.51327        16.39728        -0.62119
C         14.73044        14.31605        -1.12542
C         14.75281        17.08697        -0.53578
C         13.52455        19.17607         0.04380
C         14.76959        18.50443        -0.14849
C         16.02992         2.12596        -1.40705
C         16.01526         3.60027        -1.49885
C         17.25774         1.47218        -1.24960
C         17.27436         4.36432        -1.08906
C         15.90972         6.43284        -0.85017
C         15.75200         7.86165        -0.34236
C         17.10154         5.76500        -0.66153
C         17.05129         8.65680        -0.28363
C         15.94578        10.75720        -0.94535
C         15.95193        12.13255        -1.03780
C         17.09745        10.01594        -0.45569
C         17.19289        12.88306        -0.88853
C         15.96213        15.01404        -1.05515
C         15.95906        16.41683        -0.79788
C         17.19297        14.28506        -1.11207
C         17.22689        17.23208        -0.91510
C         15.97087        19.13985         0.10670
C         17.24707        18.34872         0.13539
C         18.45778         2.16502        -0.87772
C         18.42264         3.57333        -0.62515
C         19.65834         1.45484        -0.66138
C         19.53295         4.21604        -0.01975
C         18.24761         6.41471         0.00944
C         18.22673         7.90640         0.22832
C         19.53034         5.66682         0.12558
C         19.55249         8.63969         0.50023
C         18.29692        10.82422         0.03418
C         18.38465        12.20169        -0.57402
C         19.58350        10.05310        -0.04490
C         19.65547        12.87625        -0.64757
C         18.48302        15.01052        -1.37360
C         18.50990        16.43864        -0.85684
C         19.70322        14.23633        -0.95919
C         19.69173        17.10583        -0.69129
C         18.49900        19.16145         0.02667
C         19.70806        18.53928        -0.31512
C         20.82102         2.09025        -0.14072
C         20.71362         3.48702         0.21271
C         22.00221         1.36857         0.12399
C         21.89427         4.17421         0.74450
C         20.69051         6.36987         0.32360
C         20.73682         7.82208        -0.07811
C         21.91756         5.68682         0.74283
C         22.04594         8.49571         0.20297
C         20.79109        10.69515        -0.25394
C         20.87413        12.11495        -0.46992
C         22.05418         9.91618        -0.20684
C         22.14454        12.79935        -0.46460
C         21.00759        14.95117        -1.14389
C         20.97371        16.41346        -0.75333
C         22.20321        14.22140        -0.60554
C         22.14449        17.09075        -0.61034
C         20.92191        19.23145        -0.29596
C         22.17638        18.59259        -0.80063
C         23.15548         1.99145         0.86899
C         23.22172         3.49266         0.51656
C         24.46944         1.37473         0.47918
C         24.38277         4.21139         1.21722
C         23.22736         6.38179         0.68791
C         23.22485         7.81776         0.47274
C         24.40548         5.69074         0.87888
C         24.49488         8.51166         0.61561
C         23.34928        10.64157        -0.15350
C         23.35194        12.11178        -0.22467
C         24.52667        10.02158         0.56088
C         24.62043        12.77658        -0.25696
C         23.42380        14.90526        -0.47839
C         23.43780        16.39919        -0.26273
C         24.64738        14.21049        -0.37507
C         24.65555        17.09596        -0.87107
C         23.46249        19.22540        -0.34130
C         24.66135        18.55909        -0.45568
C         25.66328         2.12300         0.51121
C         25.67500         3.51924         0.86676
C         26.91144         1.50162         0.22410
C         26.87263         4.24113         0.94892
C         25.67065         6.38826         0.99043
C         25.65496         7.83322         0.91166
C         26.85386         5.67538         1.16902
C         26.90132         8.61511         1.27203
C         25.80934        10.53001        -0.11326
C         25.81328        12.03911        -0.20173
C         27.02641         9.93312         0.54827
C         27.12701        12.69312        -0.47305
C         25.92239        14.90964        -0.43141
C         25.93994        16.36426        -0.53955
C         27.10782        14.19631        -0.38980
C         27.12810        17.06820        -0.43385
C         25.91128        19.21999        -0.28395
C         27.13281        18.52847        -0.35417
C         28.12512         2.20190         0.34514
C         28.12012         3.58075         0.72390
C         29.37558         1.55316         0.08280
C         29.36614         4.29383         0.87812
C         28.11501         6.36418         1.64068
C         28.19349         7.83061         1.23483
C         29.38445         5.62220         1.30980
C         29.39017         8.49569         1.13896
C         28.21625        10.61263         0.59895
C         28.21245        12.08797         0.40685
C         29.43337         9.94672         0.99247
C         29.49896        12.83794         0.60988
C         28.43808        14.88602        -0.56643
C         28.39063        16.37117        -0.31181
C         29.60935        14.22522         0.13623
C         29.56749        17.06114        -0.18057
C         28.36761        19.21237        -0.33137
C         29.59425        18.50910        -0.31962
C         30.56864         2.23715         0.21508
C         30.59697         3.59062         0.61998
C         31.84571         4.28058         0.79951
C         30.67314         6.33237         1.64602
C         30.71193         7.75279         1.02527
C         31.89955         5.55226         1.26505
C         31.84829         8.57184         1.58734
C         30.63936        10.66803         1.16532
C         30.71333        12.07932         0.95210
C         31.81460         9.91851         1.59599
C         31.92009        12.82114         1.01976
C         30.80417        14.89365         0.29131
C         30.87550        16.40303         0.19549
C         31.95011        14.18292         0.77217
C         32.01679        16.99501        -0.59141
C         30.82965        19.12776        -0.58484
C         31.99290        18.33928        -0.83996
O          3.21382         8.11447         1.71299
O         22.91976        10.04966        -1.42593
O         14.29656        10.31115        -2.74297
O         17.87541         7.00632         1.34744
O         16.93579         4.13656        -2.50173
O          4.46475        15.45027         2.94357
O          6.33384        16.74151        -0.97970
O         11.52200         3.86320        -2.92572
O         21.72864         4.89957         1.99989
O         28.40033        12.75855         1.67536
O          2.17651        10.06022        -1.18768
H          2.21442        11.00678        -1.43962
O          1.88511         3.85911        -1.26751
H          1.70588         2.89635        -1.34319
O         18.52846        15.17602        -2.84909
H         19.48798        15.30648        -3.07627
O         24.21348         4.11571         2.66210
H         23.36859         4.58882         2.87286
O         17.29397        17.65185         1.43407
H         17.29567        18.33360         2.13841
O          4.54166         4.07590        -2.01581
H          3.55723         4.17753        -2.07474
O         19.69196         8.75286         1.93689
H         19.26389         7.95262         2.32622
O         23.49187         3.59275        -0.90428
H         22.90268         2.96077        -1.37066
O          5.62200        12.23854         2.50192
H          5.51353        11.26981         2.60964
O         25.82228        10.01063        -1.47783
H         26.58742        10.43036        -1.93327
O          6.79388        10.18998        -2.35560
H          7.46861         9.77250        -2.93248
O         17.18863        17.84566        -2.23083
H         17.38603        17.13569        -2.88320
O         28.77252        14.76419        -2.00316
H         28.61591        13.81753        -2.24381
O         23.58876        16.58006         1.18055
H         22.88750        16.06203         1.62863
O         22.93590         1.79886         2.29310
H         23.50945         2.45219         2.76916
O         20.54688         7.84978        -1.53108
H         21.36040         8.20717        -1.94863
O         28.00456         6.38232         3.10801
H         28.88884         6.66734         3.44860
O         10.76373        15.32262        -2.52839
H          9.91541        15.81079        -2.60360
O         27.52284        12.31604        -1.87490
H         26.79101        12.61575        -2.45885
O         14.98924        12.95309        -3.05963
H         14.87487        12.03007        -3.39438
O         21.22496        14.99857        -2.62942
H         21.43226        14.08192        -2.91464
O         18.04416        11.05001         1.47085
H         18.52307        10.33899         1.96377
O         30.71936         6.54587         3.10350
H         30.88910         5.67466         3.52147
O         24.47869        10.53128         1.91182
H         25.18779        10.07239         2.43223
O         26.67983         9.00450         2.68926
H         27.50355         9.43234         3.00939
O         15.29340         7.75426         1.04408
H         16.05155         7.37777         1.55626
O         24.48893        17.04733        -2.32231
H         25.30235        17.41397        -2.72942
O         22.19672        18.76918        -2.27205
H         22.89535        18.15361        -2.60860
O         30.96556         7.55441        -0.39195
H         31.01162         8.43734        -0.81465
O         31.12567        16.81421         1.59089
H         31.14663        17.79549         1.60034
H          0.88848         1.68121         2.14487
H          0.52716         3.97089         1.30901
H          2.96199         0.41221         1.58364
H          0.35156         5.75979         0.12045
H          0.31264         8.21488         0.01316
H          0.32691        10.16796         1.00577
H          0.55652        12.41633         1.88896
H          0.68022        14.24402         2.41431
H          0.68736        16.66322         2.65316
H          1.78380        18.90700         2.19742
H          5.23685         0.35010         0.63359
H          3.75935        20.17591         1.43642
H          7.59751         0.32969        -0.07970
H          6.15158        20.24728         0.81281
H          9.97338         0.32836        -0.65483
H          8.65413        20.24969         0.65485
H         12.38268         0.33764        -1.25784
H         11.08777        20.24867         0.41876
H         14.78831         0.34622        -1.39335
H         13.53412        20.24299         0.31340
H         17.28532         0.37289        -1.28833
H         15.97471        20.18969         0.44050
H         19.68720         0.37505        -0.86895
H         18.48541        20.23509         0.27183
H         22.02677         0.28961        -0.09147
H         20.94432        20.28009         0.03940
H         24.51861         0.29939         0.24828
H         23.46339        20.30250        -0.10816
H         26.92816         0.44148        -0.06955
H         25.91724        20.30546        -0.10096
H         29.37209         0.49756        -0.22387
H         28.37386        20.31208        -0.37193
H         31.52100         1.72410         0.01574
H         32.77558         3.74252         0.55981
H         32.87604         6.03825         1.40609
H         32.75421         8.05063         1.92915
H         32.68936        10.47454         1.96205
H         32.85311        12.31952         1.31187
H         32.88839        14.73643         0.91653
H         32.91452        16.39670        -0.80402
H         30.86448        20.21208        -0.76298
H         32.87135        18.83368        -1.28117
