         651
 CSIRO Nanostructure Databank - Neutral Graphene Oxide Data Set
C          6.28450        31.75002         1.23387
C          6.21165        33.09565         1.07579
C          8.77194        27.47813         0.95291
C          8.18527        28.62253         0.47045
C          7.37030        29.61781         1.09549
C          8.46711        31.67216         0.02411
C          7.38760        30.96568         0.72095
C          8.47737        33.08467         0.04202
C          7.32315        33.82210         0.51857
C          8.45302        35.96700         0.14642
C          7.29574        35.20357         0.50608
C          8.46665        37.34106         0.28568
C         11.06889        23.20394         0.25213
C         11.04505        24.62582         0.09889
C          9.96246        25.40479         0.55416
C         10.86891        27.42692        -0.52645
C          9.84774        26.77709         0.26279
C         10.84874        28.84783        -0.81376
C          9.66364        29.60754        -0.71575
C         10.84288        31.70386        -0.83133
C          9.64377        30.99956        -0.50293
C         10.82721        33.13697        -0.81919
C          9.63146        33.83482        -0.39532
C         10.74428        36.01764        -0.78863
C          9.62797        35.24669        -0.32063
C         10.79089        37.40810        -0.62938
C          9.76280        38.08561         0.25168
C         10.69507        40.32668        -0.36261
C          9.63645        39.57448         0.06416
C         10.74127        41.76853        -0.22113
C         13.30321        18.85960        -0.40263
C         13.31012        20.22764        -0.44645
C         12.19385        21.02688        -0.02479
C         13.47387        23.16705        -0.36770
C         12.18971        22.42404        -0.08243
C         13.24743        24.50839        -1.03053
C         12.10728        25.30480        -0.57273
C         13.23394        27.34244        -1.39497
C         12.05277        26.68060        -0.85631
C         13.14418        28.77780        -1.70937
C         12.00277        29.56694        -1.22957
C         13.20502        31.70902        -1.67728
C         12.00124        30.98254        -1.28102
C         13.16281        33.16942        -1.66306
C         11.95110        33.84386        -1.29122
C         13.14266        36.12136        -1.72764
C         11.84299        35.30238        -1.45626
C         13.12730        37.55428        -1.41160
C         11.94542        38.16716        -0.99890
C         13.19144        40.44695        -0.88070
C         11.88118        39.65063        -0.92783
C         13.18496        41.82066        -0.35307
C         11.91954        42.49050        -0.18918
C         13.20223        44.67573         0.23582
C         11.84929        43.96736         0.18082
C         13.26817        46.05483         0.79498
C         15.76489        14.66071         0.34781
C         15.70845        16.00726        -0.16317
C         14.54245        16.71781        -0.23892
C         15.73080        18.79765        -1.06294
C         14.42023        18.02877        -0.98397
C         15.75816        20.16723        -1.15127
C         14.47474        20.90377        -1.08335
C         15.79941        23.09092        -1.34732
C         14.50433        22.38580        -1.15357
C         15.77998        24.48997        -1.48580
C         14.48316        25.21200        -1.54947
C         15.70185        27.40594        -1.75512
C         14.45005        26.68462        -1.59410
C         15.68116        28.79169        -1.89316
C         14.42266        29.53652        -2.05621
C         15.61155        31.73209        -2.37101
C         14.38588        31.01945        -1.97439
C         15.60562        33.24964        -2.19858
C         14.34504        33.92360        -1.84239
C         15.62144        36.00106        -1.53192
C         14.39820        35.34818        -1.70071
C         15.68510        37.47779        -1.34761
C         14.40466        38.28841        -1.36244
C         15.58085        40.25681        -0.33964
C         14.42558        39.66658        -0.81173
C         15.62657        41.66788        -0.03289
C         14.41425        42.41843        -0.04850
C         15.72174        44.45499         0.71494
C         14.46877        43.88278         0.17305
C         15.60642        45.68695         1.59380
C         14.42961        46.60231         1.26516
C         15.68362        48.68503         1.87067
C         14.51092        48.01751         1.57347
C         15.75487        50.12162         1.99212
C         18.16269        10.57733         1.62823
C         18.17993        11.86763         1.03614
C         16.97922        12.57457         0.85447
C         18.24114        14.59349         0.15478
C         16.94054        13.92422         0.41565
C         18.25563        15.98734        -0.35915
C         16.95078        16.59537        -0.73590
C         18.27440        18.75322        -1.24952
C         16.97888        18.03221        -1.18435
C         18.21797        20.17070        -1.38105
C         17.00320        20.89540        -1.30431
C         18.22985        23.07138        -1.51864
C         17.00879        22.34281        -1.39758
C         18.19519        24.48385        -1.64851
C         16.98742        25.21595        -1.65106
C         18.18307        27.36455        -1.86393
C         16.98061        26.67686        -1.75622
C         18.23099        28.83062        -1.83726
C         16.92086        29.57585        -1.85239
C         18.18879        31.68721        -2.13779
C         16.92313        30.93660        -2.53538
C         18.10331        33.12534        -1.75226
C         16.87074        33.93991        -1.91495
C         18.13485        36.10298        -1.57129
C         16.86055        35.27328        -1.52974
C         18.14181        37.39448        -0.77648
C         16.78175        37.93702        -0.38936
C         18.06162        40.14545         0.24507
C         16.77425        39.42962        -0.04970
C         18.10135        41.62575         0.18991
C         16.87784        42.32961         0.21341
C         18.20291        44.31821         1.06281
C         16.87682        43.73187         0.61706
C         18.13080        45.83630         1.07352
C         16.92987        46.44564         1.73831
C         18.23708        48.65359         1.82366
C         16.95308        47.92129         1.94854
C         18.21863        50.08265         1.95586
C         16.95396        50.81403         2.00653
C         18.17739        52.93308         1.79291
C         17.02816        52.27252         2.12215
C         18.52288        54.39923         1.83489
C         20.47186         6.88361         3.84032
C         20.52072         7.96001         2.95971
C         19.33718         8.64357         2.59394
C         20.61910        10.40498         1.38351
C         19.33339         9.83996         1.85664
C         20.63661        11.82585         0.97197
C         19.46693        12.47695         0.69984
C         20.71703        14.56698        -0.06821
C         19.45448        13.73825        -0.14403
C         20.73729        15.89407        -0.43438
C         19.50132        16.52595        -1.05271
C         20.73969        18.72839        -0.99818
C         19.50257        18.05236        -1.08287
C         20.80322        20.14354        -1.42485
C         19.46454        20.89825        -1.65921
C         20.71704        23.02630        -1.49304
C         19.49544        22.36184        -1.56425
C         20.69399        24.49639        -1.36887
C         19.47251        25.18758        -1.86856
C         20.76350        27.42389        -1.73376
C         19.48751        26.68041        -2.00502
C         20.76513        28.86762        -1.89579
C         19.46946        29.52246        -2.39922
C         20.66841        31.73337        -2.04481
C         19.37364        31.01041        -2.09905
C         20.67130        33.11879        -1.51635
C         19.37244        33.85586        -1.46680
C         20.59210        35.97711        -1.23180
C         19.41500        35.32631        -1.39177
C         20.64368        37.30438        -0.53412
C         19.30976        38.02774        -0.50177
C         20.60975        40.15359         0.07964
C         19.33807        39.37888         0.11313
C         20.57223        41.63266         0.17764
C         19.36444        42.30443         0.21485
C         20.67307        44.46491         0.50558
C         19.34581        43.81154         0.14630
C         20.67677        45.94853         0.60623
C         19.38210        46.64130         0.92775
C         20.70236        48.62533         1.84336
C         19.42009        47.99581         1.52066
C         20.69472        50.15172         2.09935
C         19.41360        50.78234         1.81343
C         20.86110        53.03378         2.78053
C         19.29351        52.12605         1.24786
C         20.63139        54.46648         2.27290
C         19.77691        54.71381         1.04913
C         21.00825        56.72699         0.38234
C         19.90318        55.76296         0.20479
C         21.31148        57.68921        -0.75266
C         22.76597         4.66014         5.81851
C         21.59896         5.17173         5.22162
C         22.93181         6.90231         4.10468
C         21.65791         6.28108         4.36577
C         23.01936         8.02004         3.24456
C         21.85310         8.31263         2.34061
C         23.15377        10.50350         1.75798
C         21.90711         9.68727         1.66996
C         23.17502        11.83045         1.28989
C         21.95835        12.42012         0.65522
C         23.16751        14.68262         0.48349
C         21.97935        13.86059         0.21627
C         23.13624        16.02627         0.21585
C         21.94400        16.66977        -0.29960
C         23.18252        18.79581        -0.47354
C         21.93201        18.05846        -0.56301
C         23.15235        20.27639        -0.59738
C         21.97227        20.96698        -1.11411
C         23.21515        23.13826        -1.17223
C         21.97173        22.35527        -1.26466
C         23.24506        24.55111        -1.28310
C         21.96109        25.27727        -1.24972
C         23.20904        27.43132        -1.20312
C         21.93597        26.73878        -1.48623
C         23.20734        28.94459        -1.35896
C         21.94932        29.56700        -1.81294
C         23.25656        31.77359        -1.79618
C         21.98782        31.02185        -2.04646
C         23.23354        33.15254        -1.75870
C         21.96674        33.85244        -1.47356
C         23.13418        36.13868        -1.59668
C         21.88523        35.33425        -1.57017
C         23.06670        37.55728        -1.15587
C         21.86451        38.13535        -0.86339
C         23.06483        40.09485         0.13977
C         21.83350        39.62667        -0.63759
C         23.02710        41.60027         0.28047
C         21.84653        42.31321         0.30973
C         23.12699        44.41105         0.86631
C         21.85534        43.76029         0.55675
C         23.19185        45.85248         1.03272
C         21.97526        46.67278         0.81985
C         23.17317        48.68993         1.63746
C         21.99855        48.03174         1.44495
C         23.24219        50.03899         2.35804
C         21.99306        50.88916         2.14216
C         23.32607        52.97136         2.64336
C         22.04260        52.23253         2.33506
C         23.26496        54.46263         2.27186
C         21.95537        55.28968         2.44795
C         23.31634        57.17671         1.31038
C         22.01413        56.49463         1.47501
C         23.43860        58.29433         0.50212
C         22.37770        58.69608        -0.39847
C         23.58115        60.76407        -0.87527
C         22.45529        59.90117        -1.05336
C         23.99398         5.26258         5.60567
C         25.33994         7.04679         4.53298
C         24.10429         6.40557         4.75959
C         25.41613         8.19531         3.73239
C         24.24201         8.69866         3.08302
C         25.54486        10.65921         2.29493
C         24.31682         9.94642         2.35391
C         25.56767        11.99486         1.79104
C         24.36519        12.59840         1.37064
C         25.62873        14.77443         0.96878
C         24.30926        14.10930         1.28565
C         25.63952        16.10668         0.59837
C         24.32662        16.86739         0.61372
C         25.66366        18.81079        -0.39529
C         24.35792        18.17830        -0.11780
C         25.69724        20.27369        -0.72466
C         24.43868        21.05413        -0.60649
C         25.69407        23.13540        -1.11203
C         24.45000        22.46114        -1.03224
C         25.71430        24.55228        -1.28919
C         24.47970        25.26829        -1.32967
C         25.70764        27.44822        -1.32408
C         24.49865        26.71224        -1.31746
C         25.69901        28.89539        -1.30623
C         24.50826        29.63941        -1.51806
C         25.72770        31.80301        -1.58295
C         24.50589        31.04937        -1.70110
C         25.72591        33.24011        -1.60443
C         24.47281        33.97273        -2.00398
C         25.57234        36.15110        -1.41121
C         24.43348        35.42835        -1.53792
C         25.59127        37.66787        -1.57831
C         24.32187        38.31151        -1.05122
C         25.58921        40.39690        -0.56139
C         24.33969        39.55081        -0.49391
C         25.58783        41.54033         0.42645
C         24.28791        42.23222         0.68188
C         25.58049        44.29303         1.18444
C         24.31134        43.67499         0.93283
C         25.53207        45.65767         1.72305
C         24.34224        46.48070         1.42757
C         25.63680        48.56956         2.01658
C         24.47011        47.98780         1.24706
C         25.76297        50.05881         1.93166
C         24.51081        50.83269         2.08378
C         25.78662        52.93564         2.02904
C         24.54351        52.20356         2.16388
C         25.71465        54.40315         1.67628
C         24.43792        55.12251         2.07792
C         25.79888        57.26000         1.67564
C         24.48394        56.64768         2.10105
C         25.79653        58.57951         1.15022
C         24.65540        59.09364         0.53853
C         24.66177        60.35956        -0.13489
C         26.66317         8.87506         3.53070
C         28.09004        10.69343         2.63420
C         26.73780        10.05581         2.83419
C         28.04231        12.11150         2.12063
C         26.82447        12.73630         1.74219
C         28.08383        14.79181         1.20203
C         26.84978        14.07849         1.27642
C         28.11665        16.15772         0.78854
C         26.88692        16.82265         0.45443
C         28.15548        18.87695        -0.11254
C         26.92296        18.15966         0.02059
C         28.15464        20.25413        -0.48237
C         26.96120        21.02240        -0.64887
C         28.17267        23.17335        -0.85313
C         26.92279        22.40245        -0.88864
C         28.17023        24.56227        -1.35019
C         26.96827        25.27035        -1.41523
C         28.18520        27.40702        -1.60520
C         26.97330        26.72777        -1.47573
C         28.29372        28.84916        -1.31122
C         26.95867        29.64343        -1.09334
C         28.03905        31.92977        -0.91720
C         26.91521        31.12698        -1.20898
C         28.13813        33.30654        -1.24403
C         26.88847        33.97797        -1.41471
C         28.07319        36.19848        -1.62325
C         26.86666        35.45400        -1.09776
C         28.09470        37.63518        -1.23241
C         26.86639        38.30055        -1.04141
C         28.06710        40.20580        -0.06015
C         26.86621        39.59770        -0.51440
C         28.03488        41.56090         0.49545
C         26.86370        42.27398         0.62269
C         28.07397        44.39372         1.23127
C         26.81552        43.64631         1.09544
C         28.10416        45.81136         1.61093
C         26.80050        46.32888         2.12601
C         28.56250        48.80076         2.49384
C         26.62107        47.75743         2.45427
C         28.45043        50.28764         2.51307
C         27.07994        50.80951         1.99923
C         28.26294        53.03454         1.96442
C         27.00729        52.29243         2.05461
C         28.19606        54.46339         2.01963
C         26.99625        55.14973         1.98788
C         26.98214        56.56900         1.87142
C         29.24744        12.79997         2.02497
C         30.50843        14.88465         1.57871
C         29.29473        14.14177         1.57963
C         30.53815        16.21578         1.20667
C         29.34625        16.87083         0.75924
C         30.63699        18.91336         0.24347
C         29.39592        18.22837         0.27086
C         30.74937        20.22298        -0.39871
C         29.42411        20.91853        -0.75909
C         30.76279        23.02640        -1.15162
C         29.45997        22.40326        -0.76365
C         30.75773        24.46809        -1.52336
C         29.44277        25.18089        -1.73039
C         30.75224        27.41492        -1.59491
C         29.44410        26.69100        -1.90923
C         30.79363        28.78488        -2.24679
C         29.50905        29.55314        -1.88211
C         30.44462        31.89629        -2.20957
C         29.70455        30.95908        -1.54256
C         30.55418        33.28709        -1.88075
C         29.39786        33.97678        -1.48221
C         30.63716        36.19855        -1.76375
C         29.34669        35.44001        -1.76015
C         30.60316        37.62796        -1.26439
C         29.30899        38.27007        -0.89837
C         30.55247        40.09294         0.39272
C         29.29554        39.51920        -0.24797
C         30.50880        41.62512         0.24911
C         29.30241        42.20485         1.00801
C         30.48753        44.43794         0.68373
C         29.24970        43.71100         0.95729
C         30.46606        45.94887         0.86770
C         29.26831        46.58159         1.47940
C         30.61013        48.75363         1.27382
C         29.41895        48.02536         1.75441
C         30.60800        50.19724         1.27217
C         29.56513        50.95881         1.76178
C         29.47268        52.38216         1.71613
C         31.83318        16.96906         1.39527
C         32.99005        19.11123         0.93052
C         31.82747        18.37477         0.84186
C         33.08363        20.49575         0.52767
C         31.92780        21.08703        -0.13560
C         33.00543        23.36292        -0.02199
C         31.96071        22.40145        -0.53047
C         33.18304        24.59415        -0.90551
C         32.01324        25.25055        -1.34861
C         33.26415        27.31175        -1.65462
C         32.03724        26.61993        -1.67829
C         33.39288        28.72694        -2.15804
C         32.09863        29.49764        -2.29342
C         33.48357        31.63657        -2.43564
C         32.24686        30.79525        -2.68615
C         33.22647        33.16638        -2.14911
C         31.88041        33.93998        -2.12048
C         33.15859        36.01570        -1.24602
C         31.92766        35.42673        -1.81714
C         33.04413        37.30486        -0.44042
C         31.87797        38.21102        -0.77259
C         33.03829        40.21326         0.03401
C         31.85832        39.53425        -0.10974
C         33.04250        41.63591         0.38664
C         31.81539        42.32495         0.54285
C         32.99789        44.46127         0.72632
C         31.78693        43.72157         0.67567
C         32.96060        45.89965         0.83646
C         31.78870        46.62447         0.94194
C         31.77078        48.05534         0.98768
C         34.21641        21.24202         0.75424
C         35.53633        23.07883        -0.38254
C         34.32713        22.73249         0.51098
C         35.64552        24.57358        -0.57473
C         34.42176        25.27065        -0.95841
C         35.72935        27.38820        -1.33917
C         34.45523        26.62741        -1.35944
C         35.65458        28.86613        -1.17481
C         34.47757        29.51604        -1.46380
C         35.64224        31.74341        -1.21894
C         34.32583        31.01176        -1.30975
C         35.60166        33.15209        -1.25048
C         34.40224        33.88027        -1.54809
C         35.47461        35.87473        -0.37244
C         34.31793        35.26237        -1.15115
C         35.52378        37.38994        -0.41737
C         34.32569        38.10363        -0.38956
C         35.53195        40.20137        -0.04939
C         34.30588        39.51098        -0.18531
C         35.58670        41.70318         0.14961
C         34.25238        42.36962         0.42021
C         34.21889        43.75515         0.61047
C         36.82102        25.23942        -0.42325
C         38.01812        27.49537        -0.22211
C         36.95892        26.66663        -0.77689
C         38.02339        28.89362        -0.38874
C         36.84085        29.59536        -0.80973
C         38.07349        31.71383        -0.75792
C         36.85140        31.02067        -0.92039
C         38.15204        33.16936        -1.14598
C         36.83265        33.88999        -0.96708
C         38.02464        35.97723        -0.41406
C         36.80223        35.22513        -0.66643
C         37.98790        37.34427        -0.22610
C         36.75269        38.08384        -0.26460
C         36.73304        39.48725        -0.10532
C         39.19818        29.64867        -0.10532
C         40.47621        31.76906        -0.13085
C         39.24450        31.02596        -0.34296
C         40.50469        33.12676        -0.19561
C         39.31461        33.88951        -0.49850
C         39.26205        35.24051        -0.29186
O         21.32387         9.62945         0.32089
O         31.37999        36.11465        -3.00848
O         13.52133        29.05150        -3.10293
O         15.33395        38.22382        -2.52469
O         12.21389        35.75543        -2.78669
O         32.63238        33.73221        -3.35861
O         30.24195        20.28163        -1.77502
O         26.57580        50.34646         0.69816
O         26.04874        45.56761         3.13984
O         13.51361        24.56757        -2.45435
O         12.41356        40.28576        -2.11816
O         20.20818        39.47267         1.30980
O         24.94846        41.35097         1.72677
O         20.89344        57.42828         1.68400
O         19.60119        25.80107        -3.19020
O         23.70448        20.87934         0.64776
O         28.51115        35.78777        -2.93881
O         17.08666        46.95222         3.09464
O         27.80996        29.18206         0.00706
O         30.27310        45.35628        -0.46252
O         23.11226        28.31668        -0.03457
O         36.76294        26.93419        -2.23726
O         17.21004        39.64423         1.34166
O         18.40755        46.51310        -0.19159
O         27.59813        48.24531         3.33660
O         20.65471        49.18808         3.20110
O         22.08929         7.27224         1.24625
O         31.47192        38.42753        -2.15616
O          8.46045        28.93064        -0.88172
O         17.69744        29.45817        -0.62138
O         21.38254        46.61126        -0.51486
O         21.13731        24.94639        -0.04285
O         20.21599        52.62603         3.73544
O         32.24592        23.81637         1.09496
O         29.16165        31.34905        -0.29813
O         13.95037        44.61598        -1.02596
O         20.24824        20.35650        -2.76042
O         16.85727        16.89203        -2.17125
O         28.90862        23.00218         0.44408
O         19.34851        54.81481         3.03586
O         18.56888        33.30818        -0.34623
O         22.40901        35.84651        -2.86648
O         14.06547        21.62188        -2.30959
O         18.45560        15.73467         1.06373
O         22.17480        12.73529        -0.77008
O         29.40408        25.82886        -3.06052
O         25.69820        19.29063        -1.81026
O         31.19349        31.47063        -3.32315
O         30.91343        23.40087        -2.54945
O         21.38256        31.50648        -3.31974
O         18.13882        36.55841        -2.91542
O         29.80107        29.11994        -3.23978
O         21.37854        33.28691        -0.24277
O         20.04939        52.54785         0.35856
O         15.46965        32.61226        -3.53599
O         30.24848        41.86017        -1.15818
H         30.33102        42.82094        -1.33960
O         18.50603        43.88479         2.40488
H         17.70512        43.99787         2.96003
O         17.02736        30.62759        -3.94237
H         16.65023        31.38908        -4.44094
O         34.58374        23.33341         1.79709
H         33.67509        23.63585         2.08741
O         38.43464        33.16697        -2.58900
H         38.47178        34.10172        -2.88331
O         32.93314        16.22575         0.84682
H         32.80703        16.16404        -0.12222
O         29.41237        41.90068         2.44132
H         28.58525        42.20492         2.87350
O         28.86717         9.88296         1.72866
H         28.40106         9.85617         0.86780
O         30.66146        27.73945        -0.16445
H         30.85432        26.93321         0.36203
O         19.46345        29.33654        -3.82984
H         20.11403        29.96823        -4.21095
O         15.30209        45.13378         2.91109
H         15.63227        45.79316         3.56861
O         24.12213        17.23125         2.02171
H         23.98485        16.38173         2.51394
O         25.55967        41.04198        -1.87520
H         25.74691        40.35144        -2.54989
O         10.31444        37.96249         1.63716
H         10.24773        37.01597         1.88901
O         36.52009        42.02584         1.19480
H         36.15857        41.68909         2.04002
O         24.70385        48.20071        -0.17206
H         25.22790        49.02587        -0.27811
O         19.30551        13.27847        -1.51542
H         20.16784        12.88549        -1.78165
O         19.03631        44.13482        -1.22358
H         18.97980        45.11744        -1.30507
O         14.05341        17.68291        -2.35823
H         14.84474        17.25162        -2.75643
O         21.81678        40.26140        -1.93627
H         22.57166        39.92084        -2.46109
O         24.00084        14.51861         2.68877
H         24.73847        14.19589         3.25127
O         23.26786        49.72379         3.77824
H         22.35861        49.42682         4.02648
O         21.93846        55.80702         3.79543
H         21.14454        56.38322         3.86472
O         24.34178        57.06360         3.49115
H         23.48452        56.69705         3.82963
O         25.62481        37.91479        -3.01892
H         25.03247        37.26872        -3.46006
O         20.90582        36.92814         0.86396
H         20.88542        37.76682         1.39393
O         27.00436        35.53077         0.36041
H         26.23113        35.08788         0.77008
O         22.97615        39.52111         1.46533
H         23.68562        39.94481         2.00598
O         16.42504        37.23392         0.83733
H         16.90710        37.68405         1.57063
O         21.74012        56.94734        -1.91081
H         22.65245        56.62600        -1.75737
O         35.18812        35.54572         1.04716
H         35.92605        35.90907         1.58275
O         35.36531        22.48219        -1.67138
H         35.19257        21.52605        -1.54645
O         11.18971        44.11814         1.44740
H         11.67115        43.59428         2.12013
O         24.52001        34.10579        -3.46639
H         23.71416        34.61707        -3.72555
O         33.88507        28.58498        -3.53501
H         34.14591        29.48053        -3.85569
O         25.62939        54.41895         0.19998
H         26.41555        53.94278        -0.14461
O         33.55972        31.26415        -0.08865
H         34.05165        30.88283         0.66871
O         14.06140        23.43026         0.94396
H         14.94124        23.84431         0.81088
O         30.53485        39.64715         1.77203
H         29.99341        40.27432         2.31065
O         32.75308        36.84472         0.91673
H         33.54295        36.32897         1.22636
O         28.52637        50.72197         3.89613
H         28.03178        50.06646         4.43552
O         19.48084        16.09292        -2.43343
H         18.60896        16.35990        -2.81234
O         23.44283        52.97303         4.09594
H         22.66204        53.43720         4.46899
O         34.28723        31.60178        -3.63549
H         33.83960        32.17643        -4.29685
O         20.84272         7.03337         0.56234
H         20.74947         7.85710         0.01093
H          5.46181        31.20951         1.72446
H          5.33743        33.65912         1.43180
H          8.46160        27.08021         1.93041
H          6.66252        29.31205         1.88206
H          6.40286        35.73337         0.87004
H          7.56475        37.86005         0.64413
H         10.15484        22.70339         0.60732
H          9.16770        24.92147         1.14116
H          8.74957        40.06980         0.48956
H          9.80202        42.28739         0.02438
H         12.43699        18.33002         0.02395
H         11.28068        20.50570         0.30317
H         11.20720        44.49864        -0.56948
H         12.37150        46.68709         0.68964
H         14.81605        14.18411         0.63748
H         13.61218        16.26162         0.13364
H         13.58648        48.60635         1.45744
H         14.80794        50.68336         2.01560
H         17.19877        10.15932         1.95587
H         16.03146        12.07671         1.10998
H         16.13710        52.81654         2.47351
H         17.64719        55.07532         1.70128
H         19.49452         6.52714         4.20061
H         18.37879         8.26649         2.98349
H         19.06003        56.05411        -0.44016
H         20.36415        58.21096        -1.04291
H         22.69427         3.78163         6.47490
H         20.62816         4.69878         5.42789
H         23.59656        61.73307        -1.39330
H         21.65853        60.19801        -1.75058
H         24.89796         4.86830         6.09152
H         26.25171         6.65412         5.00670
H         26.74761        59.12868         1.07391
H         25.55894        60.99125        -0.06381
H         27.57651         8.44013         3.96281
H         28.64775        10.68180         3.60854
H         29.13769        55.03043         2.07681
H         27.94364        57.09549         1.76063
H         30.17981        12.29641         2.31830
H         31.43574        14.39893         1.91550
H         31.47616        50.70250         0.82177
H         30.35969        52.97723         1.45145
H         32.02768        17.03046         2.50261
H         33.87840        18.63933         1.37665
H         33.91964        46.43957         0.84504
H         32.70431        48.60587         0.79891
H         35.05920        20.77225         1.28754
H         36.47812        22.68724         0.09923
H         36.01152        42.15717        -0.78880
H         35.16540        44.31543         0.62217
H         37.71828        24.70631        -0.07204
H         38.86188        27.01194         0.29435
H         38.92467        37.89223        -0.04638
H         37.68311        40.02696         0.01992
H         40.10479        29.12289         0.22877
H         41.38089        31.20529         0.13854
H         41.42706        33.67535         0.04783
H         40.15249        35.77720         0.07095
