         200
 CSIRO Nanostructure Databank - Neutral Graphene Oxide Data Set
C        -11.15346         0.63219         0.12570
C         -9.91612         1.37408         0.13870
C         -8.68588         0.65490        -0.05015
C         -7.45101         1.35923        -0.02249
C         -6.22351         0.64697        -0.22084
C         -4.97482         1.34281        -0.21548
C         -3.75802         0.64110        -0.46131
C         -2.51841         1.34429        -0.50359
C         -1.29229         0.64301        -0.71942
C         -0.06700         1.36824        -0.77582
C          1.16358         0.66275        -0.89078
C          2.40077         1.38772        -0.91620
C          3.63603         0.69508        -0.84218
C          4.88613         1.43468        -0.81256
C          6.10442         0.69228        -0.60530
C          7.35814         1.44557        -0.40197
C          8.62941         0.68306        -0.52232
C          9.94021         1.43192        -0.53437
C         11.11724         0.67526        -0.06244
C         -9.89157         2.75607         0.33580
C         -8.66596         3.47767         0.38399
C         -7.43480         2.76410         0.21141
C         -6.19172         3.46333         0.29298
C         -4.94990         2.74527         0.06048
C         -3.71693         3.42087         0.03785
C         -2.50566         2.75523        -0.30059
C         -1.28154         3.48924        -0.40444
C         -0.06767         2.79613        -0.65360
C          1.17895         3.49451        -0.76716
C          2.37979         2.81834        -0.94507
C          3.65198         3.60668        -1.19564
C          4.91715         2.81185        -1.01153
C          6.21493         3.55928        -1.26388
C          7.39823         2.92185        -0.56768
C          8.71969         3.61310        -0.69578
C          9.90544         2.90554        -0.54349
C         -8.63841         4.87782         0.60712
C         -7.42347         5.57762         0.68577
C         -6.20200         4.84848         0.54242
C         -4.93805         5.56828         0.72595
C         -3.65441         4.82949         0.44728
C         -2.45588         5.60008         0.09815
C         -1.32139         4.93440        -0.28756
C         -0.08197         5.72370        -0.45427
C          1.19143         4.97353        -0.65251
C          2.41899         5.56853        -0.05490
C          3.71181         4.83751        -0.28314
C          4.95655         5.60904        -0.19891
C          6.11658         5.12810        -1.05021
C          7.44720         5.73192        -0.57566
C          8.67587         5.02625        -0.74898
C         -7.37375         6.99621         0.94993
C         -6.18397         7.71691         0.97877
C         -4.92833         7.04687         0.72821
C         -3.74385         7.74321         0.60808
C         -2.52411         7.10617        -0.01517
C         -1.22351         7.76845         0.36806
C         -0.03587         7.08666         0.14051
C          1.22400         7.72145         0.37586
C          2.44752         7.00114         0.26617
C          3.68807         7.62100         0.49325
C          4.92957         6.90152         0.28344
C          6.22252         7.59667         0.64366
C          7.44801         6.94516         0.06638
C         -6.13278         9.14286         1.20030
C         -4.94581         9.81943         1.18996
C         -3.69496         9.15650         0.89977
C         -2.47187         9.81789         0.97541
C         -1.21541         9.13913         0.78205
C          0.02077         9.78448         0.95830
C          1.24579         9.09792         0.76597
C          2.51500         9.74169         0.88556
C          3.70596         9.04406         0.72047
C          4.98163         9.74706         0.63057
C          6.15061         9.09416         0.46834
C        -11.16659        -0.72444        -0.02178
C         -9.94523        -1.47336        -0.18822
C         -8.70229        -0.75730        -0.23785
C         -7.48491        -1.46792        -0.44279
C         -6.24663        -0.75124        -0.44095
C         -5.02474        -1.45412        -0.68145
C         -3.77299        -0.77071        -0.69642
C         -2.54596        -1.48438        -0.90258
C         -1.28745        -0.77413        -0.88965
C         -0.06938        -1.46883        -1.07348
C          1.16336        -0.76539        -0.96365
C          2.41660        -1.46410        -0.81859
C          3.64392        -0.72580        -0.72040
C          4.86830        -1.42256        -0.49047
C          6.10887        -0.68987        -0.43239
C          7.34805        -1.40232        -0.14259
C          8.58657        -0.73548        -0.13252
C          9.80513        -1.41573         0.14414
C         11.04521        -0.65129         0.20775
C         -9.93872        -2.86961        -0.24254
C         -8.72649        -3.59702        -0.37054
C         -7.49401        -2.89207        -0.55351
C         -6.27563        -3.61585        -0.76686
C         -5.06872        -2.84297        -0.97515
C         -3.85971        -3.41031        -1.43882
C         -2.58989        -2.85994        -1.21778
C         -1.36962        -3.73577        -1.51603
C         -0.05610        -2.93258        -1.33983
C          1.22179        -3.65402        -0.97048
C          2.43079        -2.86600        -0.64711
C          3.63306        -3.54970        -0.34231
C          4.86033        -2.82450        -0.26735
C          6.08526        -3.52038         0.02289
C          7.31863        -2.80602         0.09091
C          8.54186        -3.50261         0.36984
C          9.76847        -2.78683         0.40829
C         -8.69545        -5.01078        -0.23030
C         -7.48329        -5.69792        -0.19600
C         -6.25842        -5.02257        -0.52441
C         -5.02713        -5.76665        -0.34323
C         -3.84759        -5.42719        -0.96229
C         -2.52356        -5.82420        -0.51188
C         -1.35145        -5.09908        -0.74966
C         -0.08766        -5.72632        -0.39165
C          1.15628        -5.06343        -0.52106
C          2.37870        -5.69437        -0.14346
C          3.61663        -4.97039        -0.11872
C          4.83103        -5.64039         0.19851
C          6.06561        -4.91788         0.25090
C          7.29239        -5.60919         0.54991
C          8.50070        -4.89887         0.59917
C         -7.43945        -7.10200         0.18641
C         -6.27576        -7.71277         0.56511
C         -5.01074        -6.88585         0.66736
C         -3.74126        -7.69737         0.58197
C         -2.53183        -7.09701         0.18046
C         -1.29882        -7.77327         0.37122
C         -0.08221        -7.08677         0.10004
C          1.14291        -7.76294         0.35915
C          2.37733        -7.07334         0.23687
C          3.60381        -7.74500         0.53042
C          4.82611        -7.03987         0.48949
C          6.06269        -7.72001         0.78614
C          7.25823        -7.01467         0.79887
C         -6.21492        -9.08618         1.01446
C         -5.02866        -9.69439         1.28984
C         -3.75189        -9.04099         1.04029
C         -2.54687        -9.74379         1.15338
C         -1.30767        -9.11869         0.86512
C         -0.07677        -9.79494         1.03361
C          1.13688        -9.13797         0.79600
C          2.37821        -9.80796         1.01290
C          3.58878        -9.14133         0.88788
C          4.84397        -9.80905         1.13761
C          6.02417        -9.13207         1.08411
O         -4.11591         5.03885         1.84364
O          5.79926         5.69446        -2.29920
O          2.99771         4.69146         0.98115
O          7.22666         2.36061         0.76843
O          0.58229         5.68294        -1.77609
O         -2.69489         7.36351        -1.45879
H         -1.86013         7.10357        -1.90672
O         -5.01268        -6.30128         2.01472
H         -5.86399        -5.82581         2.12127
O          9.33579         0.89442        -1.78888
O         -3.93355        -4.63429        -2.11421
O         -1.47575        -4.08380        -2.91242
H         -0.55414        -4.16244        -3.25580
O          3.60573         4.11860        -2.55139
H          4.35703         4.78043        -2.64896
O          0.87672        -3.36066        -2.39036
O          6.39575         7.40293         2.09883
H          5.58872         7.75185         2.53430
O          6.50539         3.37283        -2.66817
H          6.28857         4.25878        -3.08617
H         11.95022        -1.18624         0.53330
H         12.06553         1.21678         0.07340
H         10.85909         3.45325        -0.47860
H          9.62114         5.59139        -0.79790
H          8.40869         7.32698         0.45487
H          7.09119         9.65484         0.36058
H          4.95468        10.84776         0.61492
H          2.54542        10.82535         1.07578
H          0.04037        10.84672         1.24507
H         -2.45300        10.88492         1.24523
H         -4.92787        10.90089         1.39214
H         -7.07284         9.67867         1.39896
H         -8.32552         7.52585         1.10860
H         -9.58726         5.41875         0.73972
H        -10.83767         3.30125         0.47233
H        -12.09589         1.18429         0.25646
H        -12.11936        -1.27411        -0.00774
H        -10.88494        -3.42212        -0.14103
H         -9.63403        -5.55083        -0.03509
H         -8.38935        -7.65865         0.22197
H         -7.15899        -9.64242         1.11954
H         -5.01238       -10.73951         1.63276
H         -2.55423       -10.78985         1.49399
H         -0.07247       -10.83680         1.38622
H          2.36475       -10.86633         1.31318
H          4.82593       -10.88083         1.38387
H          6.97350        -9.64927         1.28658
H          8.19906        -7.53788         1.02616
H          9.43503        -5.43605         0.81977
H         10.69978        -3.32937         0.62838
