         480
 CSIRO Nanostructure Databank - Neutral Graphene Oxide Data Set
C         37.43023        49.96159         0.43899
C         36.25545        50.59673         0.83383
C         37.46101        52.68127         1.01655
C         36.27300        51.96500         1.11815
C         39.98455        48.51930        -0.12493
C         39.86367        49.98757        -0.16532
C         38.63612        50.67340         0.31891
C         39.92792        52.81565         0.59950
C         38.66554        52.06052         0.62094
C         39.96306        54.19338         0.93580
C         42.44783        48.60287        -0.26344
C         41.17923        47.89612        -0.27169
C         42.43879        50.01821        -0.09063
C         41.17548        50.77013        -0.13729
C         42.38405        52.88704         0.41854
C         41.15255        52.17712         0.31983
C         42.39281        54.27934         0.73373
C         41.14969        54.90382         0.98418
C         44.92482        45.75204        -0.11374
C         43.79645        46.46801        -0.41402
C         44.90844        48.63027         0.21017
C         43.67299        47.88549        -0.23779
C         44.89209        50.10811        -0.15775
C         43.65382        50.77243         0.01802
C         44.84522        52.92524         0.32635
C         43.62464        52.19459         0.20835
C         44.84520        54.34006         0.50083
C         43.64281        55.02431         0.71938
C         44.89591        57.13903         0.92166
C         43.69506        56.44249         0.91781
C         47.49635        44.15985         0.39589
C         47.45200        45.64717         0.42571
C         46.11174        46.38719         0.58327
C         47.26842        48.22363        -0.67259
C         46.17500        47.80456         0.02466
C         47.30847        50.35804        -0.67090
C         46.06716        50.89703        -0.18863
C         47.38315        52.85484         0.61997
C         46.07596        52.24605         0.17468
C         47.40091        54.34570         0.43120
C         46.11361        55.09098         0.17077
C         47.38931        57.19673         0.68954
C         46.13335        56.51683         0.65664
C         47.46717        58.63876         0.83270
C         49.85159        44.13757        -0.42758
C         48.61060        43.47941         0.06883
C         49.87178        45.62377        -0.50541
C         48.68427        46.36615        -0.01514
C         49.78315        48.50961        -0.67742
C         48.62944        47.76452        -0.49246
C         49.76422        50.01861        -0.82219
C         48.56560        50.80063        -0.35719
C         49.85443        52.82722         0.15574
C         48.65066        52.15409         0.13957
C         49.86941        54.26797         0.43443
C         48.60338        55.02388         0.49122
C         49.87009        57.19147         0.74666
C         48.59668        56.46622         0.59531
C         49.89790        58.66645         0.52262
C         48.63598        59.33561         0.71752
C         52.42250        41.38335        -0.41340
C         51.21732        42.05329        -0.40276
C         52.35696        44.21763        -0.28208
C         51.17039        43.46392        -0.35277
C         52.34560        45.68784        -0.29603
C         51.13247        46.39620        -0.45178
C         52.31330        48.52427        -0.51099
C         51.08723        47.82019        -0.52699
C         52.38958        49.97035        -0.96704
C         51.06916        50.76707        -0.82452
C         52.29842        52.79296        -0.08351
C         51.10308        52.15621        -0.24394
C         52.35245        54.13997         0.59416
C         51.06993        54.92265         0.48575
C         52.34877        57.07262         0.18410
C         51.13526        56.39043         0.66588
C         52.23901        58.48181        -0.24030
C         51.08154        59.30847         0.18991
C         52.36644        61.33573        -0.45044
C         51.20051        60.72945        -0.10638
C         54.97729        39.97126        -0.33768
C         54.90637        41.40011        -0.31141
C         53.64304        42.09496        -0.33627
C         54.83325        44.24409        -0.08341
C         53.61382        43.52243        -0.24119
C         54.78571        45.70147         0.31496
C         53.54148        46.42085        -0.13882
C         54.79542        48.56265        -0.18352
C         53.54060        47.83304        -0.27428
C         54.79353        50.00165        -0.23010
C         53.60130        50.69357        -0.43668
C         54.83301        52.85183        -0.08990
C         53.58635        52.18278        -0.61524
C         54.79078        54.25527         0.09218
C         53.58137        54.93217         0.22459
C         54.73938        57.03622        -0.36901
C         53.54244        56.36596         0.12193
C         54.59131        58.23033        -0.99298
C         53.44619        59.14717        -0.82990
C         54.92637        61.43333        -0.88418
C         53.69627        60.61275        -0.38270
C         54.99980        62.84301        -0.44394
C         57.38273        39.97138        -0.01202
C         56.16934        39.28113        -0.17200
C         57.37300        41.42525        -0.15962
C         56.09856        42.15113        -0.22982
C         57.31086        44.31045         0.10198
C         56.06642        43.56744        -0.07572
C         57.28776        45.74873         0.07507
C         56.06220        46.44717         0.02385
C         57.28425        48.58327        -0.06959
C         56.03600        47.86300        -0.07043
C         57.27414        50.01520        -0.06570
C         56.05414        50.72378        -0.09729
C         57.30496        52.88761         0.17459
C         56.04761        52.15672        -0.01266
C         57.32501        54.26714         0.32119
C         56.03439        55.03686         0.43036
C         57.28176        57.26201         0.14082
C         56.09221        56.34543        -0.39991
C         57.42098        58.69467        -0.33792
C         56.52073        59.35694        -1.08899
C         57.52492        61.57036        -0.69903
C         56.32806        60.81339        -1.09747
C         57.46302        62.98490        -0.62902
C         56.15304        63.57531        -0.48310
C         60.06574        37.35781        -0.02465
C         58.84557        38.04221        -0.23696
C         59.61648        39.99694         1.19371
C         58.65438        39.34139         0.19912
C         59.72389        41.57676         1.05309
C         58.62247        42.17606         0.18583
C         59.77646        44.33772         0.30309
C         58.53055        43.65073         0.25992
C         59.77251        45.74377         0.15118
C         58.53228        46.45727         0.06367
C         59.77226        48.59150        -0.04544
C         58.51941        47.87808        -0.01262
C         59.77425        49.99858        -0.06797
C         58.52873        50.73716        -0.01273
C         59.81980        52.84036         0.21631
C         58.53276        52.12701         0.12501
C         59.87296        54.33143         0.34555
C         58.58046        55.09616         0.57923
C         59.87256        57.25604        -0.06767
C         58.57745        56.42808        -0.23254
C         59.86800        58.62721        -0.08903
C         58.61258        59.44861         0.20840
C         59.90421        61.58756        -0.16188
C         58.68312        60.87344        -0.30791
C         59.90098        62.99634        -0.35289
C         58.69430        63.70849        -0.50204
C         59.92220        65.83909        -0.39835
C         58.74661        65.15188        -0.53696
C         62.36639        35.76249         0.75693
C         62.35868        37.18360         0.79242
C         61.11157        37.92254         0.66566
C         62.27279        40.08916         0.93368
C         61.04027        39.29255         1.32978
C         62.27009        41.46639         0.66067
C         61.03568        42.20016         0.61894
C         62.26173        44.29963         0.21505
C         61.02347        43.58838         0.36745
C         62.25209        45.72232         0.07539
C         61.01856        46.44846         0.06055
C         62.25836        48.56020        -0.14576
C         61.01505        47.86225        -0.05010
C         62.25410        49.98670        -0.22626
C         61.02520        50.70186        -0.15277
C         62.25931        52.81755        -0.17863
C         61.04934        52.11495        -0.14578
C         62.35625        54.31554        -0.36175
C         61.06985        55.08759        -0.11305
C         62.47042        57.11720        -0.38689
C         61.08996        56.45599        -0.19511
C         62.44331        58.66524        -0.28103
C         61.11270        59.41347        -0.23694
C         62.40206        61.54629         0.00715
C         61.13663        60.86392        -0.01548
C         62.41531        62.93872        -0.08430
C         61.21088        63.69836        -0.57654
C         62.38357        65.86983        -0.07049
C         61.19096        65.18059        -0.26390
C         62.48676        67.29002        -0.20120
C         64.79171        35.72582         0.79590
C         63.54998        35.05151         0.81251
C         64.79290        37.15595         0.77167
C         63.57135        37.88431         0.86571
C         64.79119        40.08719         0.61062
C         63.58665        39.37540         1.16538
C         64.76591        41.44934         0.35465
C         63.51356        42.17607         0.40912
C         64.74389        44.30973         0.08028
C         63.50280        43.58059         0.22357
C         64.71997        45.71064         0.01932
C         63.48911        46.43501        -0.01743
C         64.73712        48.59121        -0.25271
C         63.49388        47.85735        -0.12583
C         64.73740        50.00436        -0.35852
C         63.47804        50.70547        -0.29007
C         64.76574        52.81024        -0.09990
C         63.46469        52.11117        -0.25547
C         64.80343        54.21713         0.38607
C         63.43532        54.89076         0.60848
C         64.77442        57.14264         0.77798
C         63.48894        56.42669         0.54951
C         64.79922        58.64940         0.68267
C         63.63159        59.39622         0.20399
C         64.92772        61.48549         0.28043
C         63.64964        60.78956         0.19961
C         64.97273        62.95575         0.06045
C         63.68288        63.69534        -0.09101
C         64.92515        65.86246         0.28041
C         63.60927        65.12286         0.41953
C         64.93188        67.23533         0.08477
C         63.69926        67.93121        -0.14510
C         67.37261        32.96040         1.14644
C         66.14988        33.63471         1.07342
C         67.25644        35.76471         0.63900
C         66.06349        35.03543         0.84931
C         67.22507        37.14921         0.32717
C         66.01147        37.84531         0.51190
C         67.28106        40.00613         0.04546
C         66.03867        39.31732         0.53041
C         67.19405        41.46027        -0.21521
C         65.99345        42.15874         0.00289
C         67.20912        44.25541        -0.33387
C         65.99300        43.58463        -0.07218
C         67.28159        45.71758        -0.16770
C         65.98075        46.47315         0.04246
C         67.18845        48.59695        -0.51539
C         65.97847        47.91018        -0.26345
C         67.15694        50.00871        -0.69072
C         65.95946        50.70610        -0.56235
C         67.23388        52.93125        -0.54436
C         65.93135        52.20330        -0.83206
C         67.22066        54.37222        -0.19792
C         66.05985        54.99690         0.23000
C         67.32318        57.18302         0.49847
C         66.10089        56.36710         0.90015
C         67.34697        58.55044         0.59423
C         66.12720        59.37990         0.77105
C         67.42251        61.53288         0.15630
C         66.12031        60.81257         0.42469
C         67.42144        62.99503         0.58487
C         66.18196        63.71799         0.48201
C         67.34537        65.88088         0.88412
C         66.13385        65.11211         0.54236
C         67.39523        67.28794         0.56417
C         66.23542        67.99705        -0.06859
C         67.32096        70.09846         0.78886
C         66.19711        69.42160         0.45494
C         69.96763        31.65856         1.69439
C         69.87833        33.00592         1.25964
C         68.59442        33.63265         1.05693
C         69.74468        35.64222         0.10013
C         68.58727        35.13347         0.93959
C         69.65328        37.02741        -0.52402
C         68.27430        37.70981        -0.62783
C         69.66133        39.95864        -0.65847
C         68.31498        39.27214        -0.79861
C         69.64771        41.38286        -0.67996
C         68.40549        42.12071        -0.54133
C         69.64231        44.24037        -0.84125
C         68.41005        43.54006        -0.59912
C         69.61459        45.69604        -1.07668
C         68.43365        46.47357        -0.68205
C         69.67538        48.60686        -0.88548
C         68.43014        47.85992        -0.72276
C         69.66799        50.03045        -0.89300
C         68.37133        50.76760        -1.17373
C         69.65852        52.96602        -0.95259
C         68.38983        52.22945        -0.73894
C         69.69115        54.45119        -0.75586
C         68.47739        55.12378        -0.21936
C         69.82588        57.17794         0.17977
C         68.54617        56.45602         0.17201
C         69.88345        58.56842         0.45447
C         68.62367        59.28131         0.70686
C         69.93328        61.45768         0.57378
C         68.62641        60.77782         0.68863
C         69.91592        62.90062         0.84114
C         68.63142        63.63574         0.79421
C         69.97407        65.79061         0.78685
C         68.70373        65.08016         1.04683
C         69.94713        67.27071         0.62648
C         68.66114        68.02000         0.58881
C         69.82227        70.20600         0.87118
C         68.63757        69.48888         0.78466
C         69.84751        71.64573         0.77442
C         72.37475        31.80873         1.81276
C         71.19193        31.06732         1.96520
C         72.32081        33.12310         1.36609
C         71.09142        33.75034         1.06713
C         72.18457        35.78852         0.10127
C         71.05835        35.08250         0.48093
C         72.10606        37.12152        -0.38428
C         70.91097        37.79528        -0.58076
C         72.08110        39.99259        -0.84119
C         70.87532        39.25117        -0.71422
C         72.07562        41.36893        -0.90869
C         70.86827        42.10400        -0.80612
C         72.09901        44.29644        -0.85955
C         70.85808        43.55002        -0.88042
C         72.15105        45.65256        -0.88442
C         70.95088        46.45761        -1.13278
C         72.11516        48.63789        -0.76044
C         70.91751        47.91625        -0.88529
C         72.09399        50.02263        -0.69096
C         70.88035        50.72660        -0.79120
C         71.83181        52.82681         0.21751
C         70.99774        52.23313        -0.90998
C         71.85304        54.15049         0.41649
C         71.08496        55.06476        -0.52861
C         72.25463        57.18551         0.00146
C         71.03556        56.49685        -0.05877
C         72.29651        58.55752         0.21623
C         71.10511        59.28756         0.39656
C         72.34111        61.50993         0.26461
C         71.11847        60.75597         0.48007
C         72.38805        62.86816         0.29216
C         71.24155        63.66445         0.75243
C         72.39578        65.92011         0.43126
C         71.17370        65.14463         0.60029
C         72.44335        67.25452         0.66298
C         71.20774        68.00364         0.98602
C         72.35797        70.32377         0.87395
C         71.13521        69.51833         1.05428
C         72.28937        71.66586         0.69928
C         71.01750        72.34126         0.67980
O         61.87107        59.21528        -1.48728
O         69.62975        35.79401        -1.32613
O         69.45088        67.67119        -0.71414
O         69.53187        53.88009        -2.10907
O         68.53063        60.09618         1.96877
O         47.14090        49.30046        -1.56054
O         62.99957        56.91767        -1.66365
O         58.90817        39.73915         2.38096
O         40.41323        50.56860        -1.39231
O         65.03051        53.08179         1.31347
O         64.50225        63.42141        -1.27231
O         67.16045        39.72261         1.45902
O         55.59560        58.65056        -1.86466
O         50.63098        56.83213         1.99374
O         49.64163        44.84015        -1.72266
O         48.41814        46.19134         1.42521
O         63.78814        56.92072         1.87978
O         71.18536        68.67052         2.28057
O         70.70546        63.23674         2.04215
O         58.45002        41.75022        -1.19001
O         66.85499        46.14097         1.17888
O         67.59059        37.18014        -1.75173
O         58.53706        56.16389        -1.58177
O         70.21962        46.09149        -2.34845
O         60.10467        53.49791         1.54190
O         67.94939        65.55491         2.18974
O         65.33381        59.13134         1.97460
O         55.49835        61.27662        -2.20693
O         52.37738        58.77610        -1.73975
O         50.28885        50.61418        -2.06469
O         52.50859        53.86508         2.04081
H         52.32440        54.70467         2.51604
O         66.29514        56.09338         2.31632
H         66.02066        56.89893         2.80804
O         67.92853        39.55988        -2.16412
H         67.68577        38.66367        -2.54544
O         71.82355        55.12459        -1.76627
H         72.04508        54.19738        -2.03220
O         67.61349        61.54389        -1.29372
H         66.85035        62.01095        -1.69851
O         63.78925        39.45281         2.62408
H         62.90361        39.26482         3.03802
O         65.70307        52.36130        -2.25624
H         66.43923        51.89404        -2.71847
O         58.57964        55.43228         1.99620
H         59.04563        54.68483         2.44862
O         62.95659        54.53010         1.90878
H         63.49975        55.01879         2.56654
O         61.19954        39.02732         2.74979
H         60.25667        39.15562         3.10372
O         71.69084        52.47121        -2.17237
H         71.00991        52.77248        -2.81853
O         59.50053        42.10752         2.37735
H         59.13059        41.32239         2.88679
O         52.65267        49.87171        -2.41645
H         51.76205        49.86882        -2.85097
O         68.93634        35.61718         2.29345
H         68.21766        35.34706         2.90400
O         63.39414        64.95266         1.86324
H         63.38330        65.84248         2.27500
O         56.36591        55.95646        -1.73906
H         56.38208        56.76153        -2.30525
O         45.83379        46.35931         2.01353
H         46.69835        46.50029         2.46460
O         46.06797        55.19953        -1.32201
H         46.80126        55.79492        -1.59009
O         55.82835        55.35737         1.84558
H         55.68746        54.51028         2.31905
O         44.74743        48.74323         1.67464
H         44.90219        47.83708         2.05314
O         54.67910        45.67847         1.79485
H         55.50645        45.27929         2.14064
O         62.76599        54.40573        -1.73066
H         62.81358        55.37350        -2.00594
O         53.59655        52.43945        -2.06407
H         53.30850        51.60514        -2.51536
O         54.02988        60.47496         1.03717
H         53.22122        60.21357         1.52747
O         61.40355        63.67726        -2.04923
H         61.46673        62.73922        -2.33256
O         58.56807        59.62723         1.64961
H         58.10047        58.83264         2.01668
O         68.21738        50.82157        -2.63900
H         68.96262        51.35061        -2.99663
O         47.37115        52.65424         2.08677
H         48.18413        53.07202         2.44489
O         66.49959        68.06670        -1.51349
H         67.46702        68.19916        -1.63062
O         57.12956        57.45950         1.53916
H         57.21943        56.59308         2.01845
H         37.39827        48.89049         0.19771
H         35.32030        50.02550         0.90975
H         37.44214        53.75256         1.25496
H         35.35065        52.47697         1.42506
H         39.08000        47.91003         0.01228
H         39.03183        54.73247         1.15223
H         41.20141        46.79719        -0.27335
H         41.11028        55.97305         1.23200
H         44.94150        44.66924        -0.30868
H         42.94058        45.91861        -0.83628
H         44.86811        58.21121         1.16347
H         42.77005        56.99954         1.11757
H         46.60092        43.61206         0.72592
H         46.53390        59.20390         0.96054
H         48.59987        42.38142         0.13779
H         48.60971        60.43421         0.74492
H         52.41628        40.28885        -0.48602
H         50.28363        41.47984        -0.47434
H         52.34915        62.40267        -0.71582
H         50.28218        61.33576        -0.09566
H         54.05564        39.38476        -0.44407
H         54.07711        63.33746        -0.10549
H         56.15198        38.18332        -0.12457
H         56.09677        64.64257        -0.22234
H         60.18212        36.35758        -0.46647
H         58.07467        37.55240        -0.85011
H         59.88214        66.93613        -0.34179
H         57.80784        65.71388        -0.63785
H         61.41236        35.21816         0.74718
H         61.59595        67.87405        -0.47023
H         63.51343        33.95392         0.83107
H         63.72942        69.00929        -0.35116
H         67.35156        31.87091         1.29101
H         65.22928        33.04744         1.19454
H         67.23173        71.14828         1.10554
H         65.23377        69.94981         0.50062
H         69.05062        31.07200         1.84256
H         68.89416        72.18983         0.72543
H         73.34514        31.34688         2.04148
H         71.23556        30.02557         2.31089
H         73.26059        33.67819         1.24342
H         73.18817        35.37762         0.28015
H         73.05975        37.65537        -0.49176
H         73.04355        39.47188        -0.92458
H         73.03220        41.88830        -1.04904
H         73.03850        43.74873        -0.70685
H         73.11257        46.15541        -0.70989
H         73.08107        48.11594        -0.75531
H         73.03785        50.58121        -0.63334
H         72.41157        52.15113         0.86462
H         72.46706        54.59013         1.21745
H         73.18629        56.63339        -0.18310
H         73.26994        59.06458         0.21509
H         73.24816        60.96805        -0.03590
H         73.30626        63.38248        -0.02529
H         73.32894        65.38197         0.21388
H         73.40880        67.77947         0.65087
H         73.33258        69.82035         0.93665
H         73.20737        72.25955         0.58829
H         71.00043        73.43462         0.57414
