         661
 CSIRO Nanostructure Databank - Neutral Graphene Oxide Data Set
C          6.00681        31.88395         0.99427
C          5.92171        33.21842         1.19370
C          8.44106        27.54601         1.38601
C          8.39315        28.95738         1.60340
C          7.28304        29.68951         1.23712
C          8.23438        31.88237         2.08084
C          7.34658        31.18444         1.03149
C          8.35912        33.34313         1.70217
C          7.10440        34.03723         1.43598
C          8.27213        36.19462         1.56873
C          7.06251        35.41589         1.45034
C          8.27318        37.54860         1.78845
C         10.80707        23.40693         0.22022
C         10.81022        24.73848         0.61967
C          9.62238        25.47601         0.84850
C         10.91937        27.53261         1.39061
C          9.64897        26.83312         1.25184
C         10.94106        28.82832         2.16074
C          9.62106        29.63821         2.12228
C         10.82874        31.89944         2.05846
C          9.57631        31.14325         2.24797
C         10.80315        33.28534         1.86560
C          9.54782        34.01453         1.70427
C         10.80581        36.23472         1.63706
C          9.55391        35.46440         1.21685
C         10.71536        37.60173         2.13812
C          9.49727        38.30981         2.00756
C         10.73703        40.44607         2.28623
C          9.51111        39.70784         2.10015
C         10.73785        41.83601         2.16254
C         13.33650        19.15072        -0.74120
C         13.27199        20.56039        -0.42399
C         12.08990        21.25517        -0.43588
C         13.33823        23.43853        -0.07443
C         12.03211        22.71883        -0.22500
C         13.37923        24.73427         0.66138
C         12.09236        25.42945         0.93030
C         13.38880        27.60134         1.06088
C         12.11765        26.89389         1.14654
C         13.39334        29.05026         1.24129
C         12.20236        29.67864         1.90958
C         13.27022        31.94959         1.48366
C         12.10635        31.18191         1.92473
C         13.27401        33.32108         1.70022
C         12.03502        33.99621         1.85025
C         13.22687        36.05645         2.60278
C         12.06317        35.45850         1.88447
C         13.21404        37.52578         2.88495
C         11.91142        38.28924         2.65230
C         13.17226        40.45110         2.99095
C         11.94406        39.74581         2.59398
C         13.21787        41.97111         2.77454
C         11.91653        42.72586         2.44199
C         13.25432        44.43111         1.19879
C         12.08534        43.75354         1.35862
C         13.32721        45.57920         0.33412
C         15.75050        15.03345        -2.09354
C         15.71765        16.31166        -1.61670
C         14.41151        16.96523        -1.22163
C         15.79730        19.07585        -0.68625
C         14.50971        18.44398        -0.87481
C         15.84324        20.47349        -0.20628
C         14.54863        21.22778        -0.05411
C         15.79458        23.39360         0.05669
C         14.61575        22.69838        -0.04408
C         15.79379        24.84019         0.17874
C         14.62848        25.51239         0.51141
C         15.73460        27.70728         0.19391
C         14.56212        26.93738         0.67118
C         15.65393        29.20186         0.23331
C         14.47971        29.82204         0.88188
C         15.68703        32.11073         0.75358
C         14.36264        31.32461         0.67630
C         15.72839        33.41317         1.47237
C         14.53892        34.03646         1.76412
C         15.78434        36.11618         2.48662
C         14.53221        35.35170         2.42438
C         15.71868        37.53301         2.76204
C         14.51666        38.22204         2.88067
C         15.77207        40.47331         2.90259
C         14.48113        39.69810         3.10399
C         15.71761        41.89950         2.48791
C         14.51432        42.59012         2.41473
C         15.73227        44.60598         1.46981
C         14.45385        44.07507         2.05587
C         15.74117        45.74627         0.70946
C         14.49914        46.30144         0.17357
C         15.68633        48.30522        -0.67524
C         14.52999        47.54337        -0.53796
C         15.68687        49.53798        -1.40893
C         18.26146        10.78403        -2.36504
C         18.23316        12.15900        -2.46534
C         17.01858        12.93438        -2.35793
C         18.22505        15.16722        -2.55839
C         16.99133        14.30626        -2.32623
C         18.27088        16.30275        -1.54794
C         16.98275        16.96525        -1.19455
C         18.26367        19.10442        -0.76392
C         16.99717        18.41070        -0.87414
C         18.28107        20.55933        -0.57432
C         17.09418        21.23722        -0.32557
C         18.29816        23.47205        -0.28624
C         17.11396        22.66101         0.19018
C         18.31647        24.83480        -0.19146
C         17.01495        25.59563        -0.28227
C         18.24341        27.74076         0.07453
C         17.06925        27.04814         0.12423
C         18.25312        29.22562        -0.07102
C         16.94756        29.96963         0.07248
C         18.25778        32.02126         0.94993
C         16.98142        31.42570         0.45616
C         18.21350        33.38278         1.50104
C         16.99989        34.05837         1.74484
C         18.23988        36.11851         2.44374
C         16.98383        35.42678         2.24507
C         18.25424        37.51604         2.67202
C         17.01258        38.25570         3.09106
C         18.20191        40.37632         2.38971
C         17.02206        39.71289         2.67141
C         18.19151        41.81398         2.15092
C         16.98644        42.51892         2.16554
C         18.17078        44.42113         1.10103
C         17.01400        44.02772         2.01982
C         18.17332        45.90587         0.87132
C         16.98494        46.48706         0.48809
C         18.11400        48.51045        -0.32440
C         16.94721        47.80774        -0.12045
C         18.09177        49.92699        -0.84638
C         16.83641        50.29766        -1.59809
C         18.07517        52.17475        -2.63766
C         16.87299        51.50368        -2.35122
C         18.09046        53.43957        -3.29051
C         20.63217         6.46992        -2.06835
C         20.69201         7.83711        -2.17289
C         19.47567         8.63533        -2.25597
C         20.75689        10.72106        -2.79607
C         19.47729         9.99584        -2.41185
C         20.71146        12.13475        -2.08728
C         19.51788        12.89794        -2.62889
C         20.85095        15.16511        -2.40394
C         19.53987        14.38971        -2.62002
C         20.73056        16.40668        -1.54656
C         19.52948        17.06818        -1.37441
C         20.74841        19.11709        -0.48488
C         19.47098        18.42348        -0.89798
C         20.75220        20.61834        -0.70162
C         19.51774        21.28962        -0.67761
C         20.75386        23.53673        -0.93604
C         19.42813        22.76698        -0.99388
C         20.76374        24.95374        -0.48809
C         19.56638        25.58438        -0.24899
C         20.75343        27.79999        -0.33828
C         19.57249        27.01639         0.25443
C         20.80813        29.19489         0.27832
C         19.56591        30.04059        -0.02365
C         20.74766        32.06438         0.93555
C         19.43500        31.33144         0.79615
C         20.69983        33.34491         1.75053
C         19.45774        34.04223         1.83614
C         20.70231        36.00912         2.69649
C         19.44338        35.37461         2.31357
C         20.72400        37.55618         2.79768
C         19.45653        38.25900         2.60854
C         20.72011        40.34406         2.27537
C         19.47177        39.65777         2.41456
C         20.71696        41.75997         2.05848
C         19.47462        42.48954         1.94448
C         20.68588        44.59835         1.45325
C         19.48016        43.84316         1.56427
C         20.71227        45.93811         1.04548
C         19.42476        46.65236         0.88940
C         20.64555        48.41723        -0.45363
C         19.38640        48.02150         0.23985
C         20.58244        49.57403        -1.40818
C         19.34048        50.35420        -1.57310
C         20.59993        52.14258        -2.69948
C         19.34431        51.51640        -2.30778
C         20.58045        53.35293        -3.59851
C         19.26898        54.09045        -3.67271
C         20.48095        56.05470        -4.60521
C         19.28736        55.37387        -4.26640
C         20.47795        57.22433        -5.40563
C         23.00296         3.82954        -3.19508
C         21.84493         4.36768        -2.66315
C         23.15042         6.35756        -1.78116
C         21.82359         5.59519        -1.78529
C         23.15242         7.82655        -1.83280
C         21.97566         8.51219        -2.11223
C         22.98585        10.58577        -1.37037
C         22.11142         9.97671        -2.48772
C         23.09739        12.15406        -1.33637
C         22.07534        12.82296        -2.32052
C         23.21724        14.90487        -1.66126
C         22.04360        14.30738        -2.01131
C         23.22358        16.27027        -1.05937
C         21.97317        17.08390        -1.26416
C         23.24411        19.20184        -1.21347
C         21.98879        18.41602        -0.96302
C         23.23725        20.54839        -0.48540
C         21.97295        21.30237        -0.78551
C         23.29708        23.49226        -0.49081
C         22.04469        22.77410        -0.86696
C         23.28918        24.88924        -0.39191
C         22.05659        25.65251        -0.36832
C         23.29721        27.88070        -0.24273
C         22.05367        27.02638        -0.19735
C         23.25513        28.97974         0.86673
C         21.93829        29.74441         0.78611
C         23.20975        31.91201         1.31924
C         21.88230        31.11972         1.43335
C         23.15804        33.12748         2.28390
C         21.91568        33.96675         2.08036
C         23.18042        36.07256         2.58851
C         21.97353        35.33409         2.45191
C         23.19090        37.48051         2.58250
C         21.99205        38.23588         2.54860
C         23.22604        40.32915         2.11287
C         21.97098        39.63785         2.32359
C         23.18375        41.73905         1.87745
C         21.96158        42.43347         1.89206
C         23.20821        44.69515         1.68033
C         21.93594        43.91629         1.83246
C         23.16941        46.06397         1.13592
C         21.95048        46.67170         0.84335
C         23.10979        48.57124        -0.25583
C         21.94117        47.93561         0.10158
C         23.13313        49.69644        -1.22490
C         21.86215        50.23906        -1.78714
C         23.07107        52.33653        -2.50318
C         21.80816        51.62894        -2.28830
C         23.03407        53.57866        -3.11062
C         21.72688        54.30332        -3.28281
C         22.94434        56.11309        -4.53555
C         21.77157        55.48974        -4.21839
C         22.93563        57.53998        -5.00563
C         21.66495        57.89778        -5.74036
C         22.92874        59.55013        -7.02839
C         21.70504        58.97812        -6.63818
C         24.25836         4.43512        -3.07883
C         25.54205         6.58308        -2.69193
C         24.41673         5.70748        -2.38080
C         25.64224         7.88211        -2.21227
C         24.42176         8.53410        -1.72824
C         25.50474        10.64738        -1.12342
C         24.35431         9.91196        -1.43669
C         25.66677        12.04856        -1.34173
C         24.46403        12.77432        -1.53869
C         25.71675        14.86036        -1.39024
C         24.48156        14.17396        -1.55572
C         25.72865        16.29439        -1.25717
C         24.51210        17.02596        -1.22771
C         25.72190        19.06969        -0.70120
C         24.51645        18.40815        -1.04347
C         25.62005        20.42032        -0.01171
C         24.55504        21.29689        -0.73642
C         25.69167        23.39690         0.09074
C         24.50834        22.75258        -0.33792
C         25.75656        24.80414         0.17913
C         24.63579        25.58355        -0.51922
C         25.78842        27.68569         0.50438
C         24.61378        27.08429        -0.18989
C         25.60130        28.91411         1.37010
C         24.49731        29.84762         0.95482
C         25.61033        31.63181         2.34578
C         24.45341        31.07806         1.51891
C         25.70981        33.15079         2.24688
C         24.44041        33.93009         2.20403
C         25.71030        36.04478         2.28918
C         24.48121        35.32537         2.79750
C         25.67815        37.40405         2.14242
C         24.51201        38.21467         2.67228
C         25.70536        40.30537         1.85082
C         24.45994        39.63230         2.13438
C         25.74254        41.71508         1.67019
C         24.45248        42.43701         1.55101
C         25.74592        44.67703         1.50560
C         24.45919        43.92128         1.41893
C         25.74161        46.05811         0.97729
C         24.45098        46.77369         0.97872
C         25.66603        48.59760        -0.34103
C         24.41379        48.14308         0.28717
C         25.58369        49.75499        -1.23932
C         24.33715        50.60762        -1.13346
C         25.55798        52.42903        -2.33470
C         24.33414        51.76716        -2.09713
C         25.52669        53.89121        -2.71953
C         24.29891        54.20707        -3.53259
C         25.52116        56.24413        -4.46648
C         24.25753        55.47710        -4.30070
C         25.44249        57.42685        -5.25827
C         24.22448        57.97174        -5.67326
C         24.15496        59.05243        -6.58644
C         26.89368         8.59006        -2.48089
C         28.34073        10.66373        -1.96532
C         27.31336         9.68700        -1.75813
C         28.21655        12.00249        -1.55105
C         26.94504        12.70277        -1.35303
C         28.17972        14.87469        -1.26271
C         26.94448        14.13165        -1.32911
C         28.19381        16.26577        -1.17717
C         26.95969        16.98846        -1.09106
C         28.14271        18.94912        -0.05198
C         26.91865        18.36092        -0.70878
C         28.11863        20.47009         0.02022
C         26.93793        21.15164         0.07644
C         28.16988        23.26607         0.80083
C         26.85459        22.56363         0.49436
C         28.18821        24.73284         0.77729
C         26.95897        25.46068         0.59569
C         28.18379        27.53292         1.13794
C         26.98950        26.86290         0.79363
C         28.17184        28.92127         1.48798
C         26.91595        29.61148         1.66303
C         28.16338        31.59576         2.46200
C         26.91531        30.93443         2.05060
C         28.16595        33.12691         2.78780
C         26.95046        33.88376         2.55376
C         28.18315        35.98086         2.18796
C         26.96396        35.28595         2.28507
C         28.19843        37.33512         1.65831
C         26.85545        38.10892         1.63114
C         28.15026        40.22178         1.40208
C         26.91860        39.57375         1.67131
C         28.17580        41.64651         1.37561
C         26.97696        42.38513         1.49237
C         28.19669        44.59396         0.96325
C         27.01968        43.88286         1.48897
C         28.16879        45.91765         0.56037
C         26.91186        46.65994         0.53513
C         28.11941        48.58360        -0.57817
C         26.87929        47.96011        -0.12670
C         28.12113        49.83367        -1.21639
C         26.86456        50.41842        -1.68176
C         28.04343        52.51324        -2.35304
C         26.80829        51.83345        -2.08030
C         27.99437        53.80483        -3.01164
C         26.80221        54.43666        -3.31574
C         26.72234        55.67194        -4.04714
C         29.42481        12.78036        -1.46420
C         30.64508        14.86396        -0.92049
C         29.43251        14.14465        -1.24399
C         30.71842        16.23414        -0.85603
C         29.49117        17.03764        -1.33210
C         30.44693        19.27537        -0.84787
C         29.38425        18.42799        -0.72528
C         30.58062        20.51238        -0.14677
C         29.38535        21.16868         0.20489
C         30.66409        23.23717         0.60164
C         29.41892        22.53377         0.57813
C         30.66028        24.64604         0.85123
C         29.41374        25.38697         0.92320
C         30.63746        27.50243         1.30215
C         29.43185        26.81666         1.11740
C         30.65351        28.90617         1.53499
C         29.40989        29.61188         1.68512
C         30.67510        31.68685         2.19191
C         29.44297        30.97325         2.09799
C         30.71382        33.10206         2.43864
C         29.48529        33.83965         2.77037
C         30.71720        36.01086         2.10731
C         29.46587        35.35020         2.52074
C         30.70726        37.39082         1.75494
C         29.44766        38.11336         1.60960
C         30.63376        40.11511         0.73580
C         29.39502        39.46381         1.31159
C         30.70508        41.61535         0.88696
C         29.47202        42.36089         1.25199
C         30.61895        44.46100         0.30247
C         29.45956        43.84272         0.99536
C         30.63073        45.92260         0.15812
C         29.40231        46.60195         0.15409
C         30.59788        48.60256        -0.67701
C         29.37295        47.94158        -0.32319
C         30.55536        49.92726        -1.19153
C         29.33222        50.55651        -1.47845
C         29.25634        51.86624        -2.07017
C         31.96155        16.84780        -0.39488
C         33.38945        18.98872        -0.14123
C         32.33923        18.13869        -0.66243
C         33.21849        20.35158         0.07644
C         31.88137        21.00658         0.45167
C         33.10563        23.22428         0.56484
C         31.89417        22.52490         0.48262
C         33.09286        24.63025         0.76197
C         31.89279        25.32727         0.94441
C         33.12713        27.55538         1.08835
C         31.92152        26.73800         1.47361
C         33.13808        28.89717         1.40101
C         31.89299        29.59877         1.67937
C         33.15992        31.69686         2.04734
C         31.90893        30.98667         1.96626
C         33.15628        33.11809         2.15384
C         31.91918        33.82903         2.29416
C         33.16014        35.96534         1.95370
C         31.92370        35.27607         2.16500
C         33.16482        37.37081         1.71738
C         31.92945        38.07319         1.58542
C         33.10651        40.12821         0.95023
C         31.93593        39.46222         1.15467
C         33.10637        41.46983         0.24323
C         31.87115        42.25673         0.60748
C         33.15208        44.46525         0.19662
C         31.89710        43.69346         0.23621
C         33.10753        45.80639        -0.05162
C         31.86198        46.55961        -0.17525
C         31.83332        47.90978        -0.53872
C         34.39384        21.14045         0.29873
C         35.60232        23.24819         0.68575
C         34.37994        22.51355         0.50322
C         35.63476        24.62911         0.75454
C         34.36359        25.37235         0.59547
C         35.69089        27.61960         0.71719
C         34.36280        26.86551         0.65648
C         35.59761        28.90046         1.49878
C         34.41231        29.58904         1.59536
C         35.62799        31.69862         2.03733
C         34.39800        30.99805         1.95382
C         35.62539        33.13100         2.06185
C         34.39164        33.83373         2.07941
C         35.63050        35.95523         1.81342
C         34.40005        35.25940         1.98135
C         35.61423        37.36039         1.54352
C         34.40361        38.04764         1.51254
C         35.54944        40.02849         0.41673
C         34.43109        39.54663         1.36547
C         35.56201        41.54109         0.47374
C         34.40773        42.23532         0.42944
C         34.44125        43.75484         0.56027
C         36.83579        25.37015         1.00891
C         38.10223        27.45100         1.34295
C         36.87736        26.75020         1.10568
C         38.12488        28.81067         1.62012
C         36.85160        29.48756         2.07549
C         38.09534        31.65248         2.03606
C         36.87638        30.99087         1.98282
C         38.10996        33.11064         2.23842
C         36.85417        33.85404         2.06580
C         38.12690        35.95920         1.67611
C         36.87054        35.24921         1.90277
C         38.08870        37.34141         1.36361
C         36.87082        38.06237         1.25401
C         36.85115        39.36894         0.78592
C         39.33206        29.56195         1.64126
C         40.56680        31.69500         1.65837
C         39.34043        30.94145         1.84444
C         40.61409        33.05057         1.66083
C         39.44076        33.86755         2.02232
C         39.34032        35.26240         1.62636
O         11.87304        36.12790         0.57318
O         26.07780        49.53093        -2.58275
O         15.34020        28.47487        -1.00983
O         21.52184        23.30262        -2.16714
O         34.25863        26.18748        -0.65820
O         25.18256        33.74652         0.97299
O         26.56271         9.93944        -0.57801
O         31.55100        18.84770        -1.60442
O         12.35395        37.81808         4.03062
O         31.02713        43.83891        -0.96812
O         29.58464        34.78647         3.87812
O         19.41405        47.91068         1.68379
O         13.06703        41.40080         4.11223
O         20.87896        52.86110        -4.98055
O         19.64842        13.63034        -3.88478
O         24.90546        28.39364         2.60048
O         20.69678        36.70429         3.98109
O         17.68920        16.07036        -0.22638
O         27.29592        22.74668         1.87604
O         24.36215        43.12409         0.19611
O         20.66888        10.94118        -4.17299
O         16.32060        32.24987        -0.57240
O         24.11654         5.73730        -0.90812
O         29.75009        43.32029         2.34390
O         27.41251        37.51261         0.42227
O         28.09910        32.11307         3.83590
O         12.82672        24.70432         2.01247
O         22.61801        44.53071         3.00507
O         15.20030        20.63658         1.13742
O         23.42677        28.29001         2.19448
O         25.62492        27.84726        -0.95648
O         12.55790        30.35982         3.15766
O         17.49258        29.68511        -1.24764
O         20.48094        48.18683        -1.90309
O         22.74682        49.37711        -2.59294
O         25.25837        20.18033         1.32115
O          9.48556        30.28236         3.43981
O         24.48092        48.03340         1.73738
O         13.75424        35.28602         3.70873
O         22.80967        12.58602        -0.01643
O         15.24137        40.17404         4.26191
O         12.67562        23.47961        -1.37724
O         38.91706        33.56665         3.36781
O         26.49127        44.47709         2.74281
O         24.41770        54.15832        -4.99097
O         23.30272        32.33292        -0.05289
H         24.10077        32.90675        -0.14040
O         22.89034        58.33807        -3.75756
H         22.82912        59.28046        -4.02437
O         11.52987        43.45827         3.64651
H         11.81674        42.90517         4.40974
O         23.09267        32.70893         3.65954
H         22.27542        32.16962         3.78139
O         20.41959        11.98468        -0.70703
H         21.22887        12.22725        -0.15830
O         22.42008        10.16188        -0.12032
H         22.55629        10.94195         0.48949
O          7.53240        31.85987         3.33708
H          7.92949        31.13332         3.87537
O         13.89002        31.43619        -0.70234
H         14.69152        31.56327        -1.26696
O         18.08720        50.76147         0.37381
H         17.35115        50.45020         0.94317
O         14.29386        44.77226         3.32856
H         15.17794        44.77945         3.76421
O         34.75352        40.10191         2.67818
H         34.10173        39.75432         3.32258
O         18.05366        15.81623        -3.84553
H         18.35430        15.16989        -4.52380
O         23.13902        20.40666         0.93950
H         22.50479        19.67847         1.17644
O         24.29788        51.17913         0.20672
H         24.86199        51.98028         0.22684
O         20.50603        27.93064        -1.75008
H         21.29934        28.36384        -2.14134
O         24.93857        21.28785        -2.12285
H         24.21930        21.69234        -2.65343
O         35.54132        44.29408        -0.17577
H         35.41131        44.07313        -1.12079
O         20.97743        32.59109        -0.39058
H         20.81326        31.86938        -1.04893
O         20.82162        18.95017         0.99501
H         20.76389        17.98765         1.18574
O         35.99467        28.06319        -0.64316
H         35.58159        27.39661        -1.24373
O         18.99676        22.78375        -2.39715
H         19.81381        22.89962        -2.93838
O         31.76478        20.60086         1.86911
H         30.96230        21.02801         2.24083
O         24.63862        35.17816         4.23090
H         24.66937        36.08217         4.61667
O         13.40917        16.74966        -2.22179
H         13.73856        17.10605        -3.07202
O         21.41878        54.86896        -1.96998
H         22.10292        55.53826        -1.75544
O         19.85308        51.89103        -5.31741
H         20.35961        51.04272        -5.34700
O         24.96271        25.48876        -1.94176
H         25.59822        26.21701        -2.13033
O         24.79778        38.33300         4.12063
H         24.07441        38.86234         4.52114
O         30.52032        39.90859        -0.72606
H         30.27206        38.97100        -0.87826
O         28.12270        18.48231         1.33073
H         27.28554        18.81480         1.72953
O         17.08883        38.25571         4.55766
H         16.37037        38.85851         4.87793
O         25.33120        54.62013        -1.45582
H         26.18605        54.61940        -0.97518
O         22.48422        12.68388        -3.67659
H         21.77197        12.17716        -4.17745
O          9.54516        35.39655        -0.23495
H         10.48801        35.43573        -0.52284
O         32.06656        26.54182         2.93739
H         31.96774        27.41984         3.36534
O         17.86694        43.78227        -0.18038
H         18.57741        44.01719        -0.81324
O         19.80560        26.97218         1.69112
H         19.19831        26.31271         2.08803
O         21.20774        15.70316        -3.71724
H         21.13636        14.94522        -4.34362
O          8.01018        31.38205        -0.25547
H          7.39471        31.10151        -0.96440
O         35.25561        39.59764        -0.93591
H         34.49309        40.14100        -1.26705
O         22.87755         9.96728        -3.70527
H         22.21714        10.23758        -4.40864
O         19.82361        30.47622        -1.39224
H         18.94519        30.50173        -1.85080
O         21.62626         5.08818        -0.42417
H         22.52560         4.87947        -0.07864
O         21.55707        30.82244         2.81916
H         22.08530        30.04026         3.09552
O         11.06062        28.33459         3.51891
H         11.23294        29.12229         4.08566
O         29.66737        17.21789        -2.77039
H         30.49945        17.73342        -2.88564
O         17.18660        44.57998         3.35241
H         17.97786        44.16610         3.75877
O         17.31726        22.50686         1.64121
H         16.61795        21.88112         1.95155
O         25.28192        31.31937         3.72150
H         25.25984        30.34148         3.81262
O         33.00584        41.17251        -1.19098
H         32.11265        40.76480        -1.33420
O         23.23886        28.57962        -1.51131
H         24.17054        28.77300        -1.77210
O         23.13744        19.54803        -2.63535
H         23.13900        18.71329        -3.15100
O         16.81723        25.68889        -1.74280
H         16.27680        26.48779        -1.93292
O         36.78013        29.20489         3.52664
H         37.53535        29.66514         3.95205
O         23.16483        15.98354         0.39808
H         23.13693        15.00554         0.51791
H          5.10300        31.29504         0.77188
H          4.94787        33.72752         1.12412
H          7.49959        27.02840         1.14495
H          6.41044        29.14856         0.83344
H          6.09596        35.93919         1.38364
H          7.31610        38.08394         1.88707
H          9.84880        22.87172         0.13629
H          8.64898        24.98899         0.68703
H          8.58016        40.27296         1.95084
H          9.78205        42.34818         1.97474
H         12.38854        18.62852        -0.94188
H         11.15212        20.72304        -0.65921
H         11.19313        44.05439         0.78767
H         12.40011        45.92522        -0.14823
H         14.79992        14.50053        -2.25506
H         14.04143        16.43921        -0.29603
H         13.58841        47.91892        -0.96763
H         14.74313        49.86412        -1.87401
H         17.31257        10.24380        -2.21139
H         16.07392        12.38399        -2.21794
H         15.92918        51.90977        -2.74795
H         17.12671        53.94516        -3.46271
H         19.65355         5.96705        -2.10554
H         18.52162         8.10693        -2.09809
H         18.32615        55.86279        -4.49180
H         19.52680        57.57174        -5.83864
H         22.93113         2.89501        -3.77150
H         20.89648         3.82341        -2.77631
H         22.91944        60.37835        -7.75101
H         20.76964        59.34510        -7.08566
H         25.11875         4.02551        -3.62641
H         26.37462         6.16030        -3.27710
H         26.37930        57.89757        -5.59724
H         25.08778        59.46490        -6.99851
H         27.52204         8.20299        -3.29684
H         29.28704        10.35437        -2.43579
H         28.94397        54.24255        -3.35663
H         27.66611        56.17697        -4.30756
H         30.38289        12.24026        -1.50709
H         31.54291        14.26684        -0.69429
H         31.49987        50.44179        -1.42324
H         30.19968        52.38106        -2.30748
H         32.60352        16.23282         0.25483
H         34.40236        18.56898        -0.01753
H         34.05300        46.36732        -0.11153
H         32.76872        48.42832        -0.79651
H         35.36859        20.63308         0.22021
H         36.54210        22.68116         0.77006
H         36.51934        42.07759         0.57130
H         34.64733        43.98700         1.64495
H         37.75907        24.79798         1.19336
H         39.05295        26.89920         1.25984
H         39.03392        37.86009         1.14339
H         37.79818        39.85795         0.50784
H         40.27580        29.05260         1.39169
H         41.47398        31.12236         1.41314
H         41.54640        33.57103         1.39507
H         40.23533        35.76725         1.23246
