         272
 CSIRO Nanostructure Databank - Neutral Graphene Oxide Data Set
C        -10.93539         0.81370        -0.05644
C        -10.09326         1.07251        -1.30585
C         -8.77299         0.29633        -1.22582
C         -7.42083         0.98190        -1.44666
C         -6.17940         0.42524        -0.79255
C         -4.84453         1.16917        -0.88934
C         -3.69387         0.75366         0.00828
C         -2.35855         1.42493        -0.17880
C         -1.10961         0.69813         0.30740
C          0.22137         1.38069         0.21121
C          1.50038         0.59531         0.34429
C          2.77936         1.34561         0.53072
C          3.91188         0.77790         1.36719
C          5.23485         1.46389         0.99355
C          6.55158         0.74074         0.98733
C          7.72243         1.59388         0.55435
C          8.76047         0.98913        -0.34087
C         10.07840         1.70907        -0.38662
C         11.27422         0.82444        -0.29088
C         -9.91054         2.53778        -1.51083
C         -8.65681         3.25616        -1.88297
C         -7.37330         2.40426        -1.96905
C         -6.06840         3.17227        -2.03750
C         -4.76622         2.49743        -1.61875
C         -3.44312         3.29024        -1.63430
C         -2.19851         2.63719        -1.09273
C         -0.87497         3.39861        -1.03798
C          0.34423         2.71899        -0.48160
C          1.59989         3.52247        -0.20880
C          2.78760         2.84523         0.38103
C          3.87299         3.61220         1.08658
C          5.22103         2.95822         0.92001
C          6.46660         3.74333         1.33322
C          7.75107         3.06503         0.83843
C          8.87555         3.90141         0.32341
C         10.20698         3.15354         0.13945
C         -8.45364         4.43286        -0.94818
C         -7.28770         5.18717        -1.02971
C         -6.20777         4.73783        -2.04981
C         -4.82657         5.47863        -1.82708
C         -3.47751         4.79291        -1.80797
C         -2.20728         5.60810        -1.49529
C         -0.82717         4.90822        -1.44497
C          0.26775         5.70535        -0.61077
C          1.49408         5.01050        -0.10172
C          2.36401         5.74538         0.94343
C          3.74742         5.09271         1.20145
C          5.01331         5.87573         0.94396
C          6.35114         5.20152         0.89627
C          7.63504         6.01241         1.01818
C          8.79945         5.25185         0.37385
C         -7.24605         6.46680        -0.45996
C         -6.25577         7.46863        -0.78971
C         -4.93381         6.91479        -1.35565
C         -3.73435         7.54884        -0.70358
C         -2.36619         7.03020        -1.04702
C         -1.29831         7.71241        -0.23550
C         -0.01553         7.03821         0.05865
C          1.15835         7.92633         0.57307
C          2.47877         7.17315         0.42182
C          3.72588         7.93725         0.39368
C          4.99233         7.40561         1.14460
C          6.24471         8.07507         0.59789
C          7.43109         7.42383         0.50127
C         -6.27831         8.79155        -0.10467
C         -5.16762         9.52773         0.07632
C         -3.82409         8.91012        -0.05597
C         -2.59779         9.75511        -0.06861
C         -1.37012         9.19768        -0.17619
C         -0.10348         9.99560        -0.46720
C          1.20281         9.32248        -0.04316
C          2.36179        10.00673         0.02166
C          3.61589         9.44268         0.68204
C          4.90038        10.13492         0.29370
C          6.08310         9.48361         0.23533
C        -10.98206        -0.38903         0.52903
C        -10.21832        -1.55511        -0.07001
C         -8.83259        -1.02797        -0.52792
C         -7.62912        -1.43934         0.28277
C         -6.33696        -0.68217         0.21342
C         -5.07315        -1.35342         0.70193
C         -3.76211        -0.62498         0.65332
C         -2.49760        -1.47299         0.67850
C         -1.17341        -0.81215         0.45674
C          0.10423        -1.56487         0.78878
C          1.40934        -0.83890         0.77179
C          2.63628        -1.46930         1.35751
C          3.96907        -0.73852         1.29527
C          5.24491        -1.47321         0.99770
C          6.52946        -0.72880         0.71056
C          7.35541        -1.18236        -0.47497
C          8.72024        -0.50524        -0.56109
C          9.98090        -1.31281        -0.42203
C         11.21823        -0.52490        -0.18655
C        -10.11942        -2.77528         0.87856
C         -8.88412        -3.61526         0.64712
C         -7.63301        -2.86924         0.75214
C         -6.32871        -3.60851         0.82652
C         -5.03896        -2.86226         0.58678
C         -3.75832        -3.61073         0.79637
C         -2.62102        -2.82337         1.43321
C         -1.28765        -3.60714         1.61879
C          0.03434        -2.90751         1.47965
C          1.32495        -3.79080         1.56759
C          2.63190        -2.96960         1.41783
C          3.85914        -3.66066         0.86737
C          5.13992        -2.90639         0.56623
C          6.14594        -3.42224        -0.45409
C          7.48895        -2.71900        -0.77001
C          8.71112        -3.45586        -0.26578
C          9.87706        -2.77370        -0.12892
C         -8.89185        -5.07527         1.02659
C         -7.61608        -5.84794         0.68732
C         -6.35342        -5.07996         0.53557
C         -5.04002        -5.81667         0.59421
C         -3.84012        -5.07807         1.10598
C         -2.59962        -5.84921         1.44057
C         -1.24961        -5.18538         1.72529
C         -0.11592        -5.83035         0.84410
C          1.19366        -5.08938         0.74787
C          2.25269        -5.46128        -0.25471
C          3.56867        -4.66014        -0.26235
C          4.80025        -5.58217        -0.29642
C          6.09720        -4.89611        -0.66056
C          7.35287        -5.68619        -0.68321
C          8.69596        -4.98706        -0.36346
C         -7.61374        -7.20706         0.61599
C         -6.38225        -8.02470         0.47464
C         -5.06456        -7.31726         0.68220
C         -3.87263        -8.09035         1.18082
C         -2.56720        -7.35394         1.23284
C         -1.57747        -7.90549         0.19103
C         -0.39549        -6.99696        -0.10356
C          0.81734        -7.60414        -0.77541
C          2.16673        -6.87853        -0.76184
C          3.41381        -7.65141        -0.90239
C          4.70645        -7.06373        -0.52548
C          6.00096        -7.87624        -0.67568
C          7.26826        -7.03033        -0.81912
C         -6.35022        -9.50143         0.67263
C         -5.18456       -10.16767         0.55469
C         -3.79944        -9.54914         0.69100
C         -2.78172        -9.52836        -0.48867
C         -1.35100        -9.39333         0.03046
C         -0.26686        -9.91813        -0.59101
C          0.81022        -9.06365        -1.25674
C          2.17163        -9.69588        -1.39069
C          3.36824        -8.99920        -1.35560
C          4.62552        -9.59064        -1.83709
C          5.82441        -8.99994        -1.66895
O          0.05579         2.63590        -1.89312
O         -6.66383         2.56743        -3.21561
O          3.27887         7.37902        -0.82168
O         -3.14485        -7.97637         2.43621
O          3.68454         4.23112         2.37774
O          8.30747         2.12467         1.82732
O         -2.52965         2.55437        -2.49989
O          7.64149        -2.80864        -2.17190
O          2.61957        -2.14950         2.63876
O         -1.09877         6.98887         1.02905
O         -2.57561        -8.12539        -0.96578
O          5.75211        -3.99561        -1.75529
O         -6.68102         5.15721        -3.27352
O          1.95882        -5.70068        -1.65625
O         -8.75886        -0.96971        -1.96875
O         -3.80829         7.66791         0.75130
O         -0.63048        -2.94211         2.76038
O         -2.10940         6.75435        -2.42376
O         -5.57800        -5.35509        -0.66861
O          7.05711        -0.21946         1.96856
O          2.73662         3.17610        -1.04419
O         -4.53142        -0.70082         1.88079
O          5.24305         2.17977        -0.29600
O          1.49784         5.69623        -1.38155
O          4.71197         7.75747         2.44195
O          5.61291         5.46681        -0.32312
O         -6.94304        -3.16746         2.06234
O         -6.56853         0.03987        -2.13909
O          9.40399        -0.95149        -1.74600
O         -1.87170        -1.50475        -0.62711
O          1.01733        -6.21746         1.67192
O          5.01279        -3.85980         1.69259
O          1.06337         8.20442         1.95898
O         -4.50176         1.24504        -2.29259
O         -4.19206        -3.26549        -0.53661
O         -3.55356        -5.44537         2.47430
O          0.96236        -1.65710        -0.38082
O          9.18368         1.69258        -1.54271
O          2.48222         0.69467        -0.72572
O         -7.29822        -0.42741         1.29214
O         -3.24931         1.78261         0.93816
O         -5.80589         7.67609        -2.18851
O          4.73928        -6.44965         0.85006
O         -0.17217        -6.79095        -1.50682
O         -4.05850         5.27644        -3.04293
O         -0.51957         1.37126         1.46880
O          4.82648        -1.24613         2.36192
O         -5.46860        -7.77337        -0.64907
O         -3.10735        -2.55959         2.75326
H         -2.34381        -2.45710         3.36409
O          6.20949        -8.56239         0.59264
H          5.96505        -7.92468         1.30282
O         -0.98699        -5.52817         3.07565
H         -0.07385        -5.21136         3.29715
O        -10.86070         0.56793        -2.43883
H        -10.32256         0.70207        -3.24908
O          0.33177        -9.05281        -2.63562
H         -0.29073        -8.28994        -2.71442
O         -0.06639        10.25508        -1.87849
H         -0.01842         9.40476        -2.36344
O          7.96999         6.13334         2.42422
H          7.60337         5.34825         2.89784
O          6.52282         3.76270         2.77594
H          7.04106         2.97124         3.05898
O        -10.04698        -2.34108         2.25001
H         -9.16171        -1.95716         2.43024
O          6.57232        -0.67583        -1.56742
H          6.85558        -1.23526        -2.34723
O         -0.40443         4.94609        -2.80003
H          0.33062         4.30304        -2.91805
O          1.40224        -4.26356         2.92565
H          1.62227        -3.49527         3.50043
O          1.65531         5.71392         2.17876
H          1.32428         6.63386         2.41367
O          9.17575        -5.50266         0.88046
H          9.18890        -6.48048         0.83669
O         -3.17411       -10.37046         1.70097
H         -2.96069        -9.78579         2.46848
O        -10.93842        -2.02071        -1.21837
H        -10.96372        -1.28195        -1.87691
O          3.43281        -3.76791        -1.37835
H          3.06783        -4.26588        -2.14595
O         10.86875         3.14178         1.40805
H         10.24571         2.74579         2.05853
O          3.45296         9.43645         2.10289
H          2.55033         8.99530         2.29156
O        -10.04309        -5.73679         0.51208
H        -10.03638        -5.67045        -0.46482
O         -8.92815         3.85488        -3.16187
H         -8.08768         4.36141        -3.44567
O          3.60233         1.11850         2.73130
H          4.12474         0.52353         3.31549
H         12.14563        -1.08459         0.01132
H         12.23889         1.32607        -0.11814
H         10.86083         3.72495        -0.56682
H          9.68806         5.84496         0.10346
H          8.31716         7.96643         0.13341
H          6.98512        10.03052        -0.08022
H          4.84952        11.20086         0.02529
H          2.42839        11.03795        -0.35900
H         -0.17380        10.99271         0.03636
H         -2.72923        10.84768        -0.07047
H         -5.23363        10.55081         0.47432
H         -7.26926         9.21589         0.11594
H         -7.91567         6.68679         0.38748
H         -9.35750         4.91326        -0.53876
H        -10.83593         3.11047        -1.68447
H        -11.53301         1.65066         0.33490
H        -11.61510        -0.56140         1.41237
H        -11.04122        -3.39209         0.77370
H         -8.99420        -5.10852         2.15537
H         -8.56635        -7.74065         0.76150
H         -7.30248       -10.05059         0.72587
H         -5.19624       -11.26740         0.59801
H         -2.97201       -10.23729        -1.32353
H         -0.35972       -10.93260        -1.01281
H          2.17942       -10.74194        -1.73281
H          4.54054       -10.50008        -2.45058
H          6.72749        -9.45217        -2.10425
H          8.19814        -7.62431        -0.79019
H          9.42212        -5.27637        -1.18113
H         10.80951        -3.31349         0.09881
