         282
 CSIRO Nanostructure Databank - Neutral Graphene Oxide Data Set
C        -10.74593         0.64331        -1.68399
C         -9.49243         1.38367        -1.59632
C         -8.28961         0.64204        -1.34745
C         -6.97549         1.38587        -1.50210
C         -5.75333         0.65136        -0.94884
C         -4.72779         1.39616        -0.17820
C         -3.74047         0.68901         0.49493
C         -2.66600         1.36863         1.34519
C         -1.30862         0.78830         0.91732
C         -0.01327         1.51721         1.04157
C          1.29506         0.72845         1.00897
C          2.56396         1.47420         1.41368
C          3.86008         0.70180         1.07922
C          5.00436         1.40697         0.39793
C          5.96343         0.57136        -0.47377
C          7.22872         1.35913        -0.86998
C          8.52979         0.62829        -1.12043
C          9.82814         1.38264        -1.11005
C         11.09171         0.59117        -1.03366
C         -9.48019         2.76340        -1.75960
C         -8.21046         3.57822        -1.75252
C         -7.16699         2.79415        -0.90284
C         -5.88306         3.53529        -0.62408
C         -4.76918         2.84679        -0.18918
C         -3.44366         3.52376         0.14573
C         -2.74393         2.94409         1.38416
C         -1.31242         3.65787         1.58076
C          0.01002         2.85682         1.75925
C          1.28945         3.65029         1.38133
C          2.46187         2.86068         0.73569
C          3.79168         3.64177         0.81835
C          4.95216         2.87811         0.19889
C          6.12695         3.56503        -0.09840
C          7.31471         2.84025        -0.62817
C          8.64458         3.49906        -0.51250
C          9.79518         2.81045        -0.71803
C         -8.35446         5.01563        -1.31136
C         -7.31323         5.71134        -0.81770
C         -6.12269         4.98657        -0.20770
C         -4.82154         5.77978        -0.26169
C         -3.58893         5.05964         0.20438
C         -2.50453         5.85002         0.87624
C         -1.24976         5.14949         1.34233
C          0.03381         6.00880         1.43144
C          1.28246         5.13538         1.19990
C          2.31057         5.77817         0.28686
C          3.63022         4.99994         0.14838
C          4.90097         5.71701        -0.15041
C          6.18026         4.98521        -0.09749
C          7.40044         5.71341        -0.28485
C          8.70582         4.95961        -0.07742
C         -7.44735         7.23418        -0.71466
C         -6.28332         7.95146         0.00956
C         -4.93483         7.30840        -0.37849
C         -3.78000         8.04183         0.28841
C         -2.50282         7.32496         0.65233
C         -1.22747         7.96728         0.16873
C          0.04422         7.32965         0.65315
C          1.21466         8.00209         0.48054
C          2.51880         7.26312         0.71497
C          3.64559         7.92108        -0.11280
C          4.99834         7.21225         0.05126
C          6.07998         7.77262        -0.88151
C          7.38590         7.06081        -0.57962
C         -6.17976         9.42045        -0.42568
C         -5.02271        10.11127        -0.45527
C         -3.76139         9.52631         0.08380
C         -2.44524        10.17835         0.01681
C         -1.24116         9.48139         0.13502
C          0.00651        10.12787         0.01486
C          1.24917         9.42267         0.08913
C          2.45224        10.08759        -0.09697
C          3.77683         9.42664         0.21361
C          4.99999        10.00749        -0.47431
C          6.07007         9.28630        -0.84760
C        -10.80012        -0.69886        -1.50182
C         -9.61304        -1.47606        -1.18736
C         -8.32087        -0.76691        -1.17897
C         -7.14585        -1.49958        -0.99434
C         -5.84828        -0.84123        -0.78660
C         -4.78834        -1.52650        -0.02583
C         -3.71583        -0.76111         0.43407
C         -2.46405        -1.49166         0.70569
C         -1.26108        -0.70851         1.12326
C          0.00978        -1.46583         1.31846
C          1.29727        -0.76066         1.01965
C          2.53490        -1.58875         1.29945
C          3.84931        -0.83011         1.10488
C          5.05582        -1.57768         0.61945
C          6.31112        -0.75599         0.23635
C          7.34979        -1.57259        -0.52169
C          8.57394        -0.85855        -0.94288
C          9.88095        -1.53337        -0.51307
C         11.10658        -0.74727        -0.92000
C         -9.68668        -2.79638        -0.84754
C         -8.46354        -3.55216        -0.38463
C         -7.20020        -3.00614        -1.09086
C         -5.96118        -3.70572        -0.52371
C         -4.83672        -2.96071         0.11651
C         -3.81418        -3.66621         0.73386
C         -2.50158        -2.99571         0.88510
C         -1.29572        -3.72851         1.43250
C          0.01975        -2.98720         1.44086
C          1.30515        -3.71163         1.07705
C          2.39409        -2.86113         0.39772
C          3.69281        -3.61699         0.09797
C          4.90066        -2.98550         0.11385
C          6.14206        -3.65655        -0.38812
C          7.49198        -3.03013         0.02156
C          8.68267        -3.69331        -0.68713
C          9.80626        -2.98402        -0.92472
C         -8.55290        -5.05997        -0.56394
C         -7.44490        -5.82270        -0.48127
C         -6.12160        -5.15971        -0.25743
C         -5.24313        -5.83767         0.77267
C         -3.90158        -5.13110         0.98738
C         -2.61908        -5.91886         1.06757
C         -1.29907        -5.22164         1.23373
C         -0.03656        -5.93865         0.89604
C          1.25007        -5.16978         0.76491
C          2.26923        -5.75527        -0.17145
C          3.51904        -4.98582        -0.49910
C          4.71063        -5.76666        -1.10102
C          6.06758        -5.06419        -0.90896
C          7.32228        -5.86368        -0.85603
C          8.59443        -5.11823        -1.20841
C         -7.41394        -7.33172        -0.68822
C         -6.47482        -8.07394         0.32482
C         -5.13874        -7.31868         0.39344
C         -3.85383        -8.06648         0.47369
C         -2.56953        -7.35880         0.71950
C         -1.40365        -7.99821         0.39634
C         -0.16979        -7.19497         0.04870
C          1.13053        -7.95821         0.05697
C          2.27710        -7.24762        -0.16026
C          3.59314        -7.88676         0.00665
C          4.77897        -7.25940        -0.66223
C          6.08074        -7.99074        -0.54086
C          7.33002        -7.20144        -0.65832
C         -6.24667        -9.49898        -0.14244
C         -5.09095       -10.16466        -0.01909
C         -3.86833        -9.57514         0.64471
C         -2.55268       -10.18714         0.22920
C         -1.37057        -9.45502         0.19816
C         -0.10323       -10.10490         0.10357
C          1.14133        -9.41343         0.15850
C          2.36434       -10.08518         0.25767
C          3.63569        -9.36298         0.34620
C          4.95530       -10.04582         0.28239
C          6.09131        -9.36100         0.04383
O         -5.21684        -0.22403        -2.00065
O          4.99517         1.17919         1.85451
O          6.96298         2.29158        -1.96074
O         -2.86502         1.02887         2.78458
O          4.07838         5.13010        -1.23089
O          5.27213        -8.04744        -1.79722
O          9.13246         1.07079        -2.37521
O         -5.43061        -4.72946        -1.46592
O         -6.44948         4.73440         1.14711
O          2.17356         2.63880        -0.64599
H          2.16087         3.49748        -1.12431
O         -2.11772        -2.38510        -0.41162
O          7.64666        -1.48699        -1.91841
O         -2.76401         6.79402         1.98259
O          0.09495         2.52811         3.15397
H          0.47239         3.30872         3.61693
O         -0.72781        -0.92450         2.47061
O          8.64821        -5.06623        -2.64534
H          7.89456        -4.50317        -2.93551
O         -1.25602         7.64680        -1.33408
O         -3.40397        -5.59054         2.29091
O          6.15370        -3.92156        -1.82558
O          1.88400        -2.43836        -0.87576
H          1.96139        -3.19755        -1.50387
O         -4.37409        -7.56274        -0.82976
O         -3.80268         5.40061        -1.23230
O         -1.46991         4.58317         2.68644
O          2.36947        -5.04469        -1.43458
O         -7.57979         7.76233        -2.03966
H         -6.69656         7.68758        -2.46965
O          7.67642        -2.94978         1.39709
O         -7.11260        -8.12004         1.60817
H         -6.99733        -7.23506         2.03324
O          1.39576        -0.02736        -0.22601
O         -6.77583         1.45175        -2.93740
H         -6.19106         0.68442        -3.16971
O          1.75105         4.54272         2.43876
O         -0.39162        -6.68865        -1.29966
H         -0.42547        -7.44721        -1.91943
O          2.44622        -1.97141         2.67536
H          3.34090        -2.26984         2.96258
O          4.80521        -1.40701         2.05061
O          5.24873         0.24276        -1.67039
H          5.51921         0.87399        -2.37473
O         -4.82298         7.58483        -1.80298
H         -4.11236         6.99845        -2.15746
O         -0.66388        -3.35905         2.67626
O         -4.08975         8.90937         1.41613
O         -0.71482         1.42871        -0.23179
O          9.79005         5.62341        -0.72502
H          9.74167         5.43019        -1.68363
O          3.73882        -8.30418         1.39997
O         -0.53953        -5.98513         2.24123
O         -2.54125         3.24575        -0.94146
H         -2.84796         3.75600        -1.72473
O          0.15662         6.49901         2.79508
H         -0.39784         5.91075         3.36414
O          3.99217         9.67284         1.62502
H          3.43171         9.04307         2.13890
O          7.00751        -0.41469         1.43968
H          7.27206        -1.28997         1.84978
O         -3.31689        -0.33924         2.94255
H         -2.55084        -0.75832         3.41516
O          5.49550         7.40299         1.38612
H          4.77104         7.20939         2.02529
O          1.80313        -4.68648         2.02722
O         -5.95621        -5.73319         2.03079
H         -5.27926        -5.79292         2.74645
O          2.57302         1.69463         2.83446
H          2.71580         0.83834         3.29128
O         -6.95937        -7.59629        -2.01848
H         -5.99681        -7.39820        -2.05993
O         -3.98238        -9.85178         2.07481
H         -3.16445        -9.53563         2.51392
O         -7.86527         3.73669        -3.15474
H         -7.60477         2.85870        -3.52250
O          3.21823         7.82620        -1.49391
H          4.02189         7.72256        -2.06754
O          4.17173         3.90003         2.18267
H          4.03659         3.06727         2.69726
O         -3.56787         3.33700         2.46382
H         -3.18359         3.01659         3.30623
O          1.66730         5.74895        -1.01340
H          2.22299         6.33660        -1.59767
O          2.85196         7.28272         2.12015
H          2.06187         6.95839         2.62723
O         -1.08969         6.21579        -1.46630
H         -0.09744         6.09638        -1.50471
O          5.73005         7.39414        -2.25434
H          6.40480         7.76818        -2.85917
O         -8.27405        -3.27056         1.03023
H         -9.06206        -3.58760         1.51865
O          9.89899        -1.46721         0.94152
H          9.19422        -2.08671         1.29393
O         -7.30085        -3.29681        -2.49777
H         -6.60992        -3.97336        -2.70293
O         -7.77198         2.58903         0.39667
H         -7.47492         3.36499         0.96627
O          4.46413        -5.77528        -2.51304
H          5.01736        -6.48997        -2.90257
O         -6.53959         7.85320         1.40761
H         -5.78426         8.26601         1.88906
H         12.06816        -1.28307        -0.94233
H         12.03121         1.13873        -1.21119
H         10.75650         3.32945        -0.57530
H          8.92701         4.98759         1.02675
H          8.34390         7.58360        -0.73037
H          6.94884         9.80371        -1.26773
H          5.05059        11.10669        -0.53607
H          2.43343        11.16980        -0.30280
H          0.03031        11.22037        -0.11757
H         -2.40651        11.26098        -0.18368
H         -5.00350        11.15664        -0.80087
H         -7.10324         9.91171        -0.76825
H         -8.39508         7.47659        -0.17012
H         -9.24559         5.55504        -1.67154
H        -10.42547         3.27026        -2.01540
H        -11.66259         1.21085        -1.90068
H        -11.76217        -1.22819        -1.56307
H        -10.66799        -3.29576        -0.80781
H         -9.53890        -5.52284        -0.73212
H         -8.44961        -7.74363        -0.59720
H         -7.11007       -10.00387        -0.60276
H         -5.02085       -11.20617        -0.36979
H         -2.50222       -11.28447         0.14880
H         -0.08816       -11.20508         0.07742
H          2.38335       -11.18479         0.21921
H          4.99945       -11.10206         0.58847
H          7.06626        -9.86545         0.12244
H          8.28753        -7.74451        -0.62913
H          9.48171        -5.71005        -0.86599
H         10.66260        -3.45572        -1.43231
