         234
 CSIRO Nanostructure Databank - Neutral Graphene Oxide Data Set
C          1.20842         2.00113        -0.21007
C          1.16776         3.38799        -0.39354
C          2.33178         1.16067        -0.07504
C          2.30264         4.25636        -0.39622
C          1.08399         6.41299        -0.03482
C          1.10415         7.82971         0.08427
C          2.24093         5.65909         0.01002
C          2.25543         8.55308         0.35311
C          1.24258        10.69334        -0.42887
C          1.30108        12.04674        -0.70966
C          2.34738         9.99382         0.11254
C          2.46594        12.79783        -0.44147
C          1.37874        14.96247        -1.08769
C          1.43507        16.32703        -1.33667
C          2.52429        14.23611        -0.69279
C          2.65813        17.02541        -1.23094
C          2.73007        18.46098        -1.45934
C          3.62581         1.49539        -0.52841
C          3.56988         3.75374        -0.71144
C          4.83781         0.88117        -0.17669
C          4.79725         4.37485        -0.31900
C          3.46566         6.30340         0.53404
C          3.43694         7.80443         0.81570
C          4.79618         5.68015         0.32047
C          4.73039         8.53603         1.06401
C          3.53992        10.72287         0.35964
C          3.58339        12.11407         0.10451
C          4.75438        10.02063         0.87885
C          4.77239        12.90961         0.47292
C          3.75938        14.93715        -0.56019
C          3.81521        16.32064        -0.85120
C          4.92945        14.26747        -0.03398
C          5.14742        17.01840        -0.92565
C          3.86140        19.16930        -1.20674
C          5.07369        18.51615        -0.73630
C          6.10596         1.45081        -0.50231
C          5.98963         3.68160        -0.48119
C          7.35362         1.09599        -0.02572
C          7.23345         4.09199         0.14230
C          5.97837         6.34269         0.54967
C          6.05370         7.73975         1.15972
C          7.25813         5.58683         0.52853
C          7.22529         8.50650         0.51826
C          6.07378        10.69157         0.75044
C          6.09655        12.14182         0.83936
C          7.27416         9.99477         0.66127
C          7.36075        12.84346         0.66905
C          6.15444        14.94313         0.13559
C          6.23583        16.35316        -0.12816
C          7.36016        14.24848         0.52581
C          7.36901        17.06597         0.20172
C          6.13176        19.21931        -0.26421
C          7.31384        18.56318         0.39522
C          8.54096         1.93399        -0.16326
C          8.48008         3.34202        -0.14270
C          9.80869         1.26318        -0.14824
C          9.70784         4.14684        -0.21070
C          8.55251         6.29034         0.37030
C          8.49116         7.77509         0.20707
C          9.71030         5.59210         0.15527
C          9.78002         8.58301        -0.00169
C          8.52459        10.68189         0.67671
C          8.57485        12.09658         0.69187
C          9.80027         9.88525         0.83868
C          9.82839        12.80142         0.74439
C          8.59857        14.94961         0.60634
C          8.59317        16.38066         0.52684
C          9.82670        14.22004         0.74569
C          9.78426        17.11207         0.66993
C          8.63774        19.22066         0.14523
C          9.81685        18.53935         0.41874
C         11.03527         1.93297        -0.20184
C         11.01052         3.40838        -0.33552
C         12.28908         1.27912        -0.11929
C         12.29036         4.11797        -0.04004
C         11.01037         6.30202         0.33628
C         11.02765         7.79647         0.35543
C         12.32051         5.58501         0.17717
C         12.31315         8.49870         0.12854
C         11.05632        10.68354         0.55308
C         11.07457        12.07229         0.70856
C         12.29826        10.01410         0.01909
C         12.33205        12.80943         0.77249
C         11.06458        14.92496         0.88149
C         11.01442        16.39495         1.03520
C         12.28687        14.23115         0.92153
C         12.31835        17.17792         1.02147
C         11.08052        19.22274         0.34626
C         12.29436        18.58549         0.56915
C         13.52715         1.95600        -0.30219
C         13.49066         3.41692        -0.57680
C         14.76879         1.34057        -0.23697
C         14.75048         4.21274        -0.70118
C         13.55890         6.35613        -0.14599
C         13.48223         7.81122        -0.06814
C         14.73358         5.68795        -0.46130
C         14.70149         8.60726        -0.35971
C         13.57070        10.60437         0.67878
C         13.57690        12.11837         0.66774
C         14.78277         9.99901         0.04041
C         14.81485        12.78684         0.63882
C         13.54545        14.96853         1.18506
C         13.58928        16.43466         0.95796
C         14.86396        14.20290         1.03263
C         14.76909        17.12053         0.80067
C         13.53950        19.22916         0.36790
C         14.76104        18.54944         0.50242
C         16.00987         2.06641        -0.41427
C         16.01197         3.47178        -0.62256
C         17.22266         1.36155        -0.29244
C         17.24276         4.25023        -1.01092
C         16.02070         6.37133        -0.48143
C         16.01666         7.85448        -0.54624
C         17.21019         5.67530        -0.49164
C         17.25496         8.62611        -0.36755
C         15.96900        10.79961        -0.43737
C         16.04183        12.16464         0.22741
C         17.26989         9.99849        -0.32798
C         17.24911        12.86309         0.26668
C         16.11434        14.95565         0.83998
C         16.07131        16.42983         0.98624
C         17.28752        14.27993         0.57659
C         17.34119        17.21123         0.70902
C         15.96919        19.22264         0.19081
C         17.21852        18.58769         0.18288
C         18.52084         2.00820        -0.47896
C         18.55227         3.49953        -0.77793
C         19.74303         1.39659         0.06727
C         19.78082         4.24246        -0.42661
C         18.49042         6.37071        -0.25139
C         18.51611         7.86568        -0.19207
C         19.78313         5.64736        -0.37355
C         19.77876         8.55708        -0.64652
C         18.53932        10.70896        -0.27509
C         18.49894        12.19196        -0.19408
C         19.75362        10.04102        -0.32700
C         19.82055        12.90411        -0.10413
C         18.59321        15.00883         0.71319
C         18.60613        16.47764         0.49067
C         19.88480        14.27142         0.51197
C         19.71717        17.15875         0.04003
C         18.35379        19.19721        -0.37271
C         19.59637        18.52849        -0.45217
C         20.90958         2.08925         0.09889
C         20.96953         3.51165        -0.16369
C         22.17634         4.22503         0.01276
C         21.00529         6.36052        -0.21199
C         21.02805         7.80942        -0.23428
C         22.19956         5.60676        -0.05386
C         22.19832         8.54478        -0.08535
C         21.03349        10.72190        -0.23916
C         21.08336        12.13726        -0.15130
C         22.21282         9.94563        -0.14595
C         22.29546        12.87991        -0.19443
C         21.17493        15.02124         0.34393
C         21.07574        16.56385         0.06681
C         22.34418        14.24558        -0.05128
C         22.15235        17.25622        -0.62598
C         20.69497        19.14387        -1.07830
C         21.93935        18.49021        -1.19695
O          3.65828         2.57006        -1.45205
O         15.24918         8.33174        -1.71559
O          5.20982        12.71898         1.84893
O         18.52791         7.12700         1.05760
O         12.49574         4.62007         1.30746
O          7.50034         8.08535        -0.86718
O         19.08028        12.87723        -1.37965
O         21.43875        16.00233         1.37177
O         10.38837         3.94256        -1.54234
O         16.84696        17.01188         2.08516
O          7.20668         4.53078         1.54305
O          3.22083         6.83377         1.88268
O         11.61364        16.91601         2.28342
O          6.06702         2.60179        -1.34819
O         13.91224         3.82916        -1.90021
O          4.56831         9.41806         2.22816
O         10.97253         7.06635         1.60616
O         19.34020        14.42680         1.85364
O         18.76147         2.53793        -1.86389
O         14.26408        14.48128         2.35744
O          5.58200        16.83296        -2.32849
H          4.89196        17.23767        -2.89677
O          7.07671        18.74735         1.84747
H          7.84813        18.36613         2.32004
O         13.49585        10.19226         2.07685
H         14.19929        10.65888         2.57569
O         19.72729         8.47194        -2.11158
H         20.46295         9.01281        -2.46907
O          9.88635         8.93466        -1.39708
H          8.97104         8.90143        -1.76820
O         15.76741        11.06918        -1.86263
H         15.56438        10.19780        -2.28218
O          6.36840         7.56660         2.55058
H          5.80460         8.19058         3.06391
O         17.11895         4.42138        -2.46052
H         17.47497         3.59475        -2.86516
O         12.38111        10.34932        -1.39052
H         11.57198         9.98102        -1.81829
O          9.84070         9.44928         2.22696
H         10.04994        10.22290         2.79054
H          0.23569         1.52971         0.00427
H          0.17616         3.85691        -0.30206
H          2.18525         0.18595         0.41368
H          0.13880         5.94120        -0.33756
H          0.17063         8.35334        -0.16160
H          0.30866        10.16054        -0.64785
H          0.41713        12.52987        -1.14574
H          0.41095        14.45296        -1.18523
H          0.52402        16.87081        -1.62423
H          1.81405        18.97772        -1.78148
H          4.81294         0.01749         0.50270
H          3.86149        20.26594        -1.29895
H          7.47391         0.12983         0.48659
H          6.07221        20.31825        -0.20530
H          9.80766         0.16597        -0.07074
H          8.67043        20.30193        -0.05701
H         12.30468         0.18993         0.03702
H         11.07845        20.28351         0.05506
H         14.83102         0.26051        -0.03769
H         13.54834        20.28919         0.07429
H         17.20052         0.29682        -0.01791
H         15.90871        20.26958        -0.14222
H         19.70010         0.35105         0.40576
H         18.26676        20.21022        -0.79303
H         21.83091         1.59742         0.44498
H         23.10568         3.66954         0.20384
H         23.16214         6.12204         0.06155
H         23.15367         8.03665         0.10504
H         23.18080        10.44998        -0.03117
H         23.24039        12.34993        -0.37680
H         23.31616        14.75631        -0.08640
H         23.15565        16.80968        -0.63068
H         20.57711        20.15982        -1.48031
H         22.76738        19.00395        -1.70508
