         621
 CSIRO Nanostructure Databank - Neutral Graphene Oxide Data Set
C          5.91789        32.14890        -0.81859
C          6.01151        33.43768        -0.36465
C          8.58490        27.91753        -0.82758
C          8.49722        29.25716        -0.48677
C          7.35639        30.01596        -1.01481
C          8.38694        31.97815         0.79428
C          6.79796        31.08460        -0.36933
C          8.31955        33.37273         0.72345
C          7.11331        34.08549         0.34575
C          8.29810        36.21728         0.80744
C          7.12929        35.47522         0.42123
C          8.30547        37.61815         0.90340
C         10.84748        23.57105        -0.47554
C         10.86359        24.92741        -0.36548
C          9.69653        25.74449        -0.60972
C         11.04879        27.84372        -0.32072
C          9.73947        27.11771        -0.54761
C         10.88574        29.23345         0.23323
C          9.63156        29.88646         0.21238
C         10.79877        31.94778         0.96234
C          9.59456        31.24518         0.66513
C         10.74639        33.36117         1.16178
C          9.53693        34.08751         0.95832
C         10.72595        36.20757         1.33629
C          9.52541        35.50359         1.02870
C         10.71607        37.63833         1.41748
C          9.49585        38.33789         1.19695
C         10.68668        40.47759         1.42240
C          9.51580        39.76781         1.22350
C         10.66211        41.98451         1.28478
C         13.44803        19.49631        -1.68891
C         13.40503        20.79020        -1.21560
C         12.12401        21.59219        -1.31045
C         13.35201        23.39989        -0.03384
C         12.03285        22.67352        -0.22200
C         13.36253        24.85430         0.22572
C         12.12303        25.63815        -0.01540
C         13.21387        27.66581         1.14401
C         12.04364        27.01677         0.44948
C         13.33603        29.10162         0.66818
C         12.08194        29.87144         0.64975
C         13.16622        31.95031         1.58763
C         12.02213        31.22866         1.09592
C         13.16010        33.33592         1.62379
C         11.94761        34.07805         1.43618
C         13.12088        36.21073         2.01669
C         11.92154        35.48362         1.56168
C         13.15535        37.67144         1.88426
C         11.93152        38.36446         1.64900
C         13.14858        40.50424         1.83174
C         11.92144        39.78749         1.63712
C         13.13086        41.92803         1.97782
C         11.91112        42.68883         1.77670
C         13.06488        44.82864         2.30554
C         11.90982        44.05690         1.82663
C         13.22266        46.24709         1.99686
C         15.90953        15.32592        -2.62261
C         15.88183        16.69857        -2.18458
C         14.68621        17.42486        -2.15074
C         15.89774        19.44475        -1.39684
C         14.67513        18.77445        -1.73173
C         15.84590        20.78286        -0.92395
C         14.60488        21.41469        -0.75707
C         15.78606        23.31549         0.41170
C         14.54616        22.74860        -0.18854
C         15.72194        24.67902         1.05113
C         14.51740        25.50496         0.86748
C         15.74927        27.58989         1.28562
C         14.52906        26.88591         1.02768
C         15.79631        29.00295         1.13067
C         14.60857        29.62839         0.52259
C         15.66903        31.91075         1.93394
C         14.34590        31.28445         2.22224
C         15.70449        33.30467         1.87506
C         14.46337        34.08085         1.53228
C         15.69310        36.21902         2.02196
C         14.42971        35.46970         2.11605
C         15.64935        37.64145         1.99303
C         14.38862        38.35476         1.93741
C         15.62090        40.50426         1.83182
C         14.38613        39.78961         1.88816
C         15.57776        41.92835         1.95961
C         14.35444        42.60460         2.17996
C         15.65660        44.78652         2.44690
C         14.38991        44.03480         2.50963
C         15.65923        46.18499         2.37341
C         14.42673        46.89871         2.11758
C         15.66290        48.83331         1.07414
C         14.46695        48.39840         1.89302
C         15.60980        49.77937         0.09468
C         18.01853        10.86051        -3.31884
C         17.75414        12.04899        -2.63367
C         16.94102        13.14490        -3.00364
C         18.19020        15.08196        -1.77531
C         16.99669        14.46725        -2.45595
C         18.33591        16.58183        -1.92053
C         17.09629        17.37420        -1.83996
C         18.41479        19.39618        -1.19712
C         17.14014        18.73029        -1.49124
C         18.42919        20.87080        -0.97298
C         17.10081        21.56564        -0.76131
C         18.31085        23.44058         0.40070
C         17.11072        22.79890         0.03481
C         18.29495        24.72893         1.04474
C         17.01217        25.34415         1.40199
C         18.27193        27.55394         1.66659
C         16.97891        26.84861         1.61981
C         18.09458        28.96136         2.11010
C         16.89221        29.73453         1.68016
C         18.10317        31.87460         2.15718
C         16.88101        31.14905         1.94587
C         18.13877        33.27200         2.04022
C         16.93084        34.02031         1.88513
C         18.14329        36.16982         1.95019
C         16.90060        35.47158         1.93462
C         18.14854        37.65096         2.00727
C         16.86609        38.38387         1.87276
C         18.07819        40.52279         1.27059
C         16.86344        39.77722         1.73672
C         17.94885        42.04607         1.32911
C         16.79205        42.69054         1.96490
C         18.20553        44.70572         2.64582
C         16.87255        44.03700         2.31745
C         18.23505        46.17920         2.21999
C         16.95977        46.90509         2.28081
C         18.17927        48.69240         0.87327
C         16.95490        48.29377         1.53665
C         18.12878        49.62191        -0.31271
C         16.80427        50.31830        -0.52556
C         18.02009        51.96444        -1.90008
C         16.78981        51.40379        -1.35652
C         17.98643        52.93218        -2.92355
C         20.89683         6.78152        -3.79724
C         20.60345         7.94690        -2.88118
C         19.55428         8.83599        -3.53894
C         20.76852        10.79218        -1.84853
C         18.99128         9.88879        -2.87788
C         20.76010        12.20889        -1.79905
C         19.56945        12.90523        -1.59604
C         20.77763        15.09721        -1.39435
C         19.49785        14.35952        -1.50589
C         20.78260        16.43369        -1.14764
C         19.60541        17.25503        -1.47848
C         20.94066        19.37962        -1.14731
C         19.58603        18.69036        -1.12356
C         20.91723        20.84082        -0.66255
C         19.63836        21.52874        -0.42638
C         20.80926        23.42661         0.72050
C         19.60161        22.78785         0.17588
C         20.73298        24.74625         1.27138
C         19.49428        25.43150         1.34928
C         20.70901        27.50394         2.18718
C         19.46495        26.84767         1.74065
C         20.57428        28.87830         2.78615
C         19.26812        29.64803         2.72623
C         20.52446        31.91896         3.11868
C         19.17307        31.18011         2.98956
C         20.53713        33.45722         2.90569
C         19.49662        33.93164         1.80056
C         20.47637        36.20904         1.42049
C         19.33842        35.46295         1.79769
C         20.65547        37.57707         1.49346
C         19.44896        38.40256         1.75769
C         20.82222        40.32481         0.77541
C         19.40541        39.76613         1.12473
C         20.99301        41.79460         0.74797
C         19.11261        42.92203         1.19238
C         20.70197        44.64263         2.06551
C         19.36548        44.00449         1.95948
C         20.73176        46.15543         1.99588
C         19.40949        46.83375         1.86408
C         20.64829        48.73040         0.73394
C         19.40057        48.11787         1.20279
C         20.59897        49.91178        -0.00459
C         19.27686        50.61486        -0.21127
C         20.47808        52.12107        -1.84774
C         19.27035        51.55845        -1.38396
C         20.43165        53.11125        -2.86714
C         19.16882        53.50097        -3.41413
C         20.22326        55.01626        -5.05589
C         19.10889        54.45433        -4.49791
C         20.07762        55.99221        -6.13733
C         23.37481         4.07417        -4.31357
C         22.21506         4.81607        -4.43480
C         23.06186         6.41381        -2.64958
C         22.03112         6.03321        -3.69269
C         23.11204         7.90873        -2.41697
C         21.91429         8.64299        -2.45646
C         23.20453        10.65444        -1.80868
C         21.95455        10.02215        -2.08684
C         23.27582        12.13518        -1.82029
C         22.03043        12.94341        -1.99614
C         23.28249        14.98682        -1.06516
C         22.08076        14.46391        -1.83317
C         23.25522        16.29094        -0.61552
C         21.95889        17.05102        -0.45131
C         23.24866        19.12071        -0.14210
C         22.07840        18.55162        -0.56092
C         23.25057        20.53237         0.33553
C         22.13983        21.45376        -0.02988
C         23.29309        23.33765         1.11981
C         22.05171        22.74124         0.70289
C         23.28096        24.69274         1.75269
C         21.93131        25.38402         1.87500
C         23.17630        27.35201         2.98070
C         21.91370        26.83084         2.22939
C         23.13753        28.89158         3.06886
C         21.81983        29.61459         3.13999
C         23.13740        31.81961         3.36680
C         21.80056        31.14020         3.28542
C         23.31257        33.29020         3.27558
C         22.02621        33.99512         2.80108
C         23.38879        36.01352         2.19484
C         22.34281        35.16904         1.98245
C         23.23544        37.47175         1.87955
C         21.97341        38.18647         1.43940
C         23.30749        40.28024         1.10369
C         22.02970        39.54032         1.16537
C         23.30086        41.77715         1.28483
C         22.00581        42.46807         1.37929
C         23.30194        44.66745         1.83291
C         21.99239        43.87212         1.86931
C         23.23875        46.13937         1.62004
C         21.99251        46.81051         1.55961
C         23.14697        48.83951         0.80559
C         21.93781        48.12432         1.03067
C         23.04644        50.21021         0.24978
C         21.78612        50.59581        -0.40656
C         22.96751        52.32058        -1.75567
C         21.75109        51.69228        -1.29291
C         22.86793        53.35874        -2.76192
C         21.64372        53.72679        -3.32085
C         22.82935        54.93788        -5.14143
C         21.55796        54.88451        -4.31026
C         22.88659        55.08712        -6.49364
C         20.97895        55.99671        -7.18542
C         22.58990        56.97402        -8.79294
C         21.33136        56.96564        -8.16304
C         24.47588         4.55431        -3.57107
C         25.57888         6.40992        -2.43198
C         24.41666         5.78543        -2.89467
C         25.59374         7.76340        -1.99824
C         24.33775         8.50983        -2.01793
C         25.63664        10.52493        -1.26630
C         24.37405         9.89247        -1.72216
C         25.66259        12.00017        -1.05964
C         24.47424        12.83046        -1.33530
C         25.72765        14.77685        -0.52824
C         24.49229        14.17748        -1.01683
C         25.68482        16.14861        -0.01331
C         24.45596        16.96252        -0.17289
C         25.74720        19.12550         0.03926
C         24.45910        18.32469         0.06063
C         25.75430        20.37774         0.90331
C         24.47391        21.15681         0.93450
C         25.79003        23.32305         1.05043
C         24.49265        22.62612         1.05486
C         25.79120        24.82811         1.39706
C         24.53899        25.49260         1.88616
C         25.85430        27.42093         2.62124
C         24.54553        26.75143         2.47412
C         26.12737        28.66960         3.21316
C         24.09014        29.58374         3.75291
C         26.17853        31.89129         3.26588
C         24.11311        31.02093         3.85581
C         25.99468        33.24841         2.85230
C         24.70260        33.97005         3.11337
C         25.88373        36.05232         2.09458
C         24.67560        35.46100         2.73008
C         25.75662        37.37771         1.48189
C         24.54573        38.20145         1.73577
C         25.78223        40.28052         1.15072
C         24.58217        39.59078         1.28309
C         25.82779        41.74594         1.38205
C         24.55727        42.50086         1.61877
C         25.73520        44.62705         1.20874
C         24.54509        43.96457         1.44006
C         25.75435        46.10484         1.42129
C         24.44461        46.83722         1.34058
C         25.66397        49.01729         0.95065
C         24.40263        48.21971         1.03701
C         25.64333        50.38588         0.26954
C         24.31539        50.97374        -0.14292
C         25.47282        52.42647        -1.80967
C         24.23263        51.91496        -1.26728
C         25.41895        53.44843        -2.79308
C         24.12989        54.02345        -3.17127
C         25.35610        55.06741        -5.21138
C         24.10998        54.90798        -4.43168
C         25.27074        55.56261        -6.54743
C         24.02921        55.63747        -7.19331
C         23.79543        56.36607        -8.40287
C         26.81420         8.39805        -1.71186
C         28.12898        10.44765        -1.24162
C         26.92270         9.79318        -1.42498
C         28.23595        11.92372        -1.17211
C         26.96175        12.72149        -1.12866
C         28.21066        14.75871        -0.42501
C         26.94250        14.10306        -0.60751
C         28.23673        16.12746        -0.21707
C         27.02618        16.87461         0.12079
C         28.22585        19.03938         0.20070
C         27.03470        18.35075         0.15197
C         28.29418        20.44107         0.54262
C         27.05276        21.10523         1.00644
C         28.28230        23.22709         1.25030
C         27.06097        22.57804         1.12254
C         28.28276        24.61710         1.65658
C         27.10510        25.33011         1.81268
C         28.44694        27.42620         2.41257
C         27.10090        26.65423         2.42978
C         28.36942        28.87633         2.33282
C         27.25707        29.54491         2.86653
C         28.29008        31.75764         2.11481
C         27.18639        31.02506         2.79457
C         28.34543        33.23546         2.22777
C         27.15207        33.95638         2.37347
C         28.26122        36.06543         1.48579
C         27.09022        35.37581         2.00502
C         28.26908        37.39764         1.10474
C         27.00313        38.11686         0.99416
C         28.21079        40.31541         0.82823
C         27.01172        39.59078         1.01356
C         28.18012        41.74100         0.68969
C         27.02064        42.49957         0.96484
C         28.14577        44.68297         0.51571
C         26.94630        43.91335         0.91120
C         28.27728        46.11643         0.81485
C         27.06116        46.84282         1.28599
C         28.25348        49.04630         0.64525
C         27.00954        48.33644         1.10872
C         28.12051        50.30586        -0.14062
C         26.88195        50.89468        -0.37876
C         27.92001        52.59817        -1.85885
C         26.74652        51.98185        -1.33710
C         27.85135        53.53821        -2.87318
C         26.60235        53.95870        -3.39760
C         26.55923        54.74871        -4.58804
C         29.45975        12.63535        -0.76293
C         30.70495        14.72302        -0.35789
C         29.46609        14.00262        -0.54220
C         30.75984        16.11126        -0.30736
C         29.49122        16.86777        -0.40613
C         30.76211        19.03202         0.07940
C         29.48355        18.34731        -0.15760
C         30.74822        20.38341         0.34839
C         29.51220        21.10475         0.61432
C         30.77004        23.10343         1.31685
C         29.55251        22.49986         1.07442
C         30.86332        24.47549         1.86562
C         29.57734        25.23706         2.05458
C         30.85734        27.34783         1.74126
C         29.66863        26.70894         1.99303
C         30.81028        28.79732         1.44280
C         29.51010        29.52919         1.67232
C         30.85016        31.67388         1.66225
C         29.50738        31.01935         1.65126
C         30.85688        33.15731         1.66410
C         29.60233        33.93706         1.91520
C         30.60969        35.95366         0.57274
C         29.57272        35.38074         1.53268
C         30.69283        37.45279         0.71420
C         29.49618        38.14287         0.82241
C         30.65977        40.30643         0.57799
C         29.45710        39.58398         0.69085
C         30.64886        41.72212         0.57048
C         29.39680        42.39164         0.07976
C         30.68245        44.61595         0.41541
C         29.40769        43.91536         0.17703
C         30.71105        46.03607         0.28205
C         29.47843        46.76289         0.51152
C         30.72636        48.88671        -0.14744
C         29.53575        48.24606         0.52547
C         30.53222        50.22459        -0.73381
C         29.33250        50.86544        -0.72906
C         29.26439        52.27439        -1.26299
C         31.96275        16.86264        -0.18692
C         33.22949        18.94757         0.12692
C         31.99198        18.26028        -0.03171
C         33.29011        20.32708         0.33653
C         32.03004        21.16103         0.23641
C         33.36425        23.02892         1.35975
C         32.04284        22.35370         1.16159
C         33.39536        24.49759         1.65600
C         32.12284        25.24608         1.68724
C         33.34195        27.38514         1.31881
C         32.11847        26.63011         1.60223
C         33.31424        28.81407         1.18148
C         32.08704        29.54695         1.30616
C         33.30936        31.68059         1.12911
C         32.08414        30.93574         1.27758
C         33.32367        33.10275         1.11237
C         32.02893        33.81131         1.01629
C         33.24431        36.00761         0.64361
C         31.96794        35.24219         0.58212
C         33.23323        37.39544         0.68467
C         31.96745        38.11716         0.44155
C         33.19008        40.39117         0.71958
C         31.96355        39.63277         0.41047
C         33.06203        41.71632         1.03350
C         31.82051        42.44235         0.83848
C         33.64091        44.88075         0.03707
C         31.80112        43.86477         0.81324
C         33.12954        45.98659        -0.62503
C         31.90851        46.69596        -0.23947
C         31.80608        48.02372        -0.62554
C         34.51534        21.01120         0.46482
C         35.75498        23.12377         0.60220
C         34.58001        22.38943         0.77837
C         35.82850        24.53204         0.78866
C         34.66159        25.25890         1.35014
C         35.75472        27.41366         0.77630
C         34.56706        26.71507         1.12839
C         35.74769        28.83040         0.71219
C         34.52025        29.53399         0.93531
C         35.71946        31.68741         0.60849
C         34.52070        30.96300         0.90251
C         35.69651        33.09289         0.58977
C         34.50035        33.82920         0.82490
C         35.69379        36.01604         0.54863
C         34.47933        35.27637         0.68991
C         35.72821        37.41299         0.51633
C         34.49316        38.16333         0.79648
C         35.74055        40.34886         0.20775
C         34.51380        39.69168         0.77426
C         35.76389        41.72168        -0.23164
C         34.92292        42.74813         0.23098
C         34.70132        44.01103        -0.36455
C         36.95683        25.26048         0.44366
C         38.15125        27.40270         0.23202
C         36.97847        26.69284         0.50098
C         38.17335        28.82353         0.20936
C         36.95487        29.54328         0.42846
C         38.15298        31.64333         0.04046
C         36.95306        30.96664         0.34439
C         38.15497        33.10207        -0.16094
C         36.88960        33.83579         0.15044
C         38.26487        36.01587         0.24346
C         36.96944        35.27878         0.51504
C         38.13741        37.45056        -0.01812
C         36.93957        38.13432         0.19870
C         36.86067        39.55755        -0.03082
C         39.37378        29.53855        -0.03753
C         40.59595        31.68939        -0.36535
C         39.37668        30.93491        -0.11456
C         40.63089        33.05009        -0.40433
C         39.43801        33.85454        -0.21390
C         39.45207        35.22185        -0.17144
O         23.88203        38.15199         3.03691
O         31.17280        32.42339         2.89546
O         32.76673        22.19215         2.41543
O         25.33688        42.03728         2.75723
O         28.55943        31.46745         0.62823
O         32.94690        44.53335         1.22771
O         19.26730        17.03744        -2.93194
O         21.03863        31.58934         4.45852
O         22.79023        12.55426        -3.18884
O         37.24097        33.54729        -1.24765
O         21.88301        21.63255        -1.46432
O         19.88769        33.53914         0.52602
O         34.65532        38.98709         2.04475
O         18.94713        38.26581         3.11164
O         29.42416        17.80687        -1.54780
O         13.14384        25.53233        -1.15522
O         19.94273        39.72966        -0.22135
O         26.07522        37.46914         0.05308
O         25.67641        50.25117         1.71723
O         30.59843        48.81978         1.33453
O         30.24786        24.61845         3.19975
O         27.93662        26.79642         3.62829
O         23.44862        20.53542         1.79345
O         31.89186        34.16599        -0.42186
O         14.20325        30.38706         3.04917
O         29.85377        29.01878         0.32981
O         21.75793        54.81878        -7.26405
O         25.77824        24.38503         0.00789
O         26.45224        20.35235         2.16368
O         18.28882        28.98168         3.58275
O         19.97295        42.52913         0.16801
O         25.50022        11.10715         0.09999
O         21.53558        35.47609         0.89912
O         24.12535        55.50234        -3.09534
O         34.32478        24.86297         2.72915
O         23.40567        41.18651        -0.06868
O         37.84818        35.60826         1.62774
O         32.02726        38.86019        -0.84333
O         26.56755        46.43080         2.60652
O         13.64955        35.68395         3.31260
O         27.84061        49.07648         2.04856
O         34.18974        42.45226         1.40292
O         13.53590        44.42035         3.62423
O         22.80668        44.05749         3.06990
O         28.59174        44.47077        -0.90742
O         17.67524        41.30187         0.09994
O         29.96995        35.02980         2.88049
O         19.58915        10.14229        -1.59787
O         25.33432        31.49693         4.30988
O         22.50072        24.60093         2.99157
O          7.20704        31.25724         0.97136
O         16.90627        25.90482         2.74546
O         21.04404        28.92899         4.19216
O         23.54577        51.34125         1.04249
O         24.83717        35.04745         4.10786
O         17.03091        48.16828         2.98963
O         20.81333        45.45296         3.27926
O         26.31318        16.31455         1.29492
O         25.28325        29.08025         4.22064
O         27.64111        12.56690        -2.41119
O         18.40918        12.22666        -1.36435
O         17.82226        21.66204        -2.04994
O         15.55884        23.46867         1.87084
O         18.50873        14.68817        -0.42285
O         22.52303        34.09840         4.17190
O         25.74853        19.69770        -1.32180
H         25.85606        18.96828        -1.96901
O         10.97962        20.74912        -1.22340
H         10.85141        20.55278        -0.26927
O         20.00791        34.03880         4.09586
H         20.56581        33.73602         4.84813
O         12.92448        27.69619         2.58008
H         13.40064        28.46859         2.96888
O         21.60101        16.86190         0.97557
H         22.33827        17.21537         1.52040
O         30.01408        35.77794        -0.74343
H         30.53997        35.09793        -1.22642
O         22.25263        15.01353        -3.17545
H         22.74861        14.34072        -3.70075
O         21.26666        19.40500        -2.56706
H         21.76514        20.23953        -2.73451
O         22.56189         5.85521        -1.37951
H         22.58392         4.87785        -1.46496
O         18.33034        44.64511         4.08006
H         19.21458        45.02492         4.30189
O         14.59873        34.33290         0.08090
H         14.95699        33.52123        -0.33846
O         30.32112        52.53466        -2.18779
H         30.18938        51.96980        -2.97618
O         23.04451        26.88477         4.33356
H         22.22867        27.29356         4.70637
O         18.37694        48.80950        -1.49929
H         17.56404        48.29937        -1.69629
O         19.04609        51.40896         0.98525
H         19.81176        52.00878         1.10778
O         29.36288        42.06877        -1.34702
H         28.78631        42.74656        -1.77053
O         11.77204        21.94617         1.01948
H         11.76156        22.58944         1.75914
O         21.56059        56.10712        -3.50800
H         22.43807        56.14722        -3.04817
O         11.68275        28.01206        -1.64298
H         12.05644        27.13981        -1.90851
O          9.49646        42.53397         1.91009
H          9.57885        42.40652         2.87737
O         20.04711         7.37976        -1.66043
H         20.74555         6.79700        -1.27627
O         32.02498        21.74456        -1.11074
H         31.94116        21.01004        -1.75554
O         14.81745        30.75767        -0.22539
H         13.96553        31.03533        -0.62236
O         13.24407        48.83905         1.31892
H         13.15965        49.80201         1.46514
O         18.56031        31.31615         4.29388
H         19.20045        30.96712         4.95491
H          5.13135        31.90953        -1.55151
H          5.24766        34.14094        -0.73703
H          7.71968        27.42984        -1.30266
H          6.97870        29.71755        -2.00471
H          6.23400        36.04018         0.11810
H          7.37499        38.17861         0.72841
H          9.90689        23.06222        -0.73824
H          8.74599        25.23763        -0.83669
H          8.58019        40.31932         1.04838
H         10.55742        42.21262         0.18501
H         12.52168        19.01349        -2.03193
H         12.10642        22.08685        -2.31936
H         11.00862        44.60414         1.51015
H         12.35520        46.80665         1.61662
H         14.98196        14.91688        -3.05119
H         13.74013        16.94030        -2.43232
H         14.58868        48.87853         2.91111
H         14.63643        50.20751        -0.19308
H         17.52776        10.69301        -4.28728
H         16.13390        12.95518        -3.72839
H         15.83743        51.89080        -1.61735
H         17.01992        53.24615        -3.34443
H         20.09898         6.45475        -4.48295
H         19.20034         8.56509        -4.54347
H         18.12036        54.65919        -4.93743
H         19.25246        56.71994        -6.09114
H         23.47934         3.13346        -4.87194
H         21.40946         4.48178        -5.10429
H         22.68818        57.68257        -9.63210
H         20.62131        57.76746        -8.41441
H         25.43541         4.01926        -3.62495
H         26.54039         5.88304        -2.53457
H         26.18405        55.91369        -7.05020
H         24.68997        56.66474        -8.97264
H         27.73817         7.80391        -1.77863
H         29.06310         9.86535        -1.26083
H         28.78213        53.96368        -3.27523
H         27.50779        54.95485        -5.10590
H         30.40932        12.07912        -0.73890
H         31.64117        14.14537        -0.32123
H         31.39607        50.72394        -1.19941
H         29.42606        52.97109        -0.39299
H         32.92012        16.31952        -0.18767
H         34.16268        18.36402         0.12388
H         33.71668        46.43182        -1.44279
H         32.61085        48.47922        -1.22289
H         35.45324        20.46549         0.27774
H         36.64092        22.60934         0.19927
H         36.52412        41.98452        -0.98419
H         35.24824        44.25657        -1.28612
H         37.85427        24.73384         0.08564
H         39.08179        26.85122         0.03139
H         39.00754        37.99705        -0.41333
H         37.76676        40.04805        -0.41935
H         40.31067        28.98101        -0.18435
H         41.52687        31.11903        -0.50124
H         41.58788        33.57021        -0.55936
H         40.40252        35.75978        -0.31395
