         732
 CSIRO Nanostructure Databank - Neutral Graphene Oxide Data Set
C         23.28275        24.41088        -1.73722
C         22.11669        25.07688        -2.07288
C         23.18053        27.23089        -1.63829
C         22.06449        26.47626        -2.03513
C         23.11892        28.69154        -1.60310
C         22.03658        29.39884        -2.06386
C         23.08321        31.57526        -1.64384
C         21.97957        30.82718        -1.99962
C         23.06834        33.03628        -1.61103
C         21.80467        33.77807        -1.58460
C         22.99175        35.92018        -2.03995
C         21.74811        35.11422        -1.74175
C         22.97582        37.36070        -1.54381
C         21.86210        38.00421        -1.06187
C         23.02614        40.18123        -0.86878
C         21.88165        39.38426        -0.73859
C         23.01737        41.57284        -0.48374
C         21.90766        42.20418         0.08179
C         23.07137        44.36204         0.25429
C         21.90858        43.57194         0.37703
C         23.08047        45.76571         0.61944
C         21.89910        46.48559         0.83529
C         23.14596        48.50804         1.31745
C         21.93770        47.84440         1.18783
C         25.82035        23.01623        -1.24632
C         25.65484        24.43444        -1.00985
C         24.44485        25.13004        -1.34449
C         25.57012        27.31847        -0.91984
C         24.38392        26.55734        -1.27280
C         25.54339        28.72764        -0.89144
C         24.21962        29.44347        -0.88395
C         25.51330        31.58224        -1.22020
C         24.32195        30.89491        -1.29873
C         25.57798        33.01836        -1.69146
C         24.25107        33.72159        -1.54340
C         25.49742        35.93051        -1.30326
C         24.21146        35.20047        -1.45590
C         25.55824        37.38500        -1.63908
C         24.22054        38.13875        -1.68245
C         25.48301        40.24047        -1.30536
C         24.25775        39.56302        -1.31152
C         25.47133        41.72488        -1.25647
C         24.20175        42.40188        -0.78622
C         25.51791        44.42174        -0.04027
C         24.27775        43.76331        -0.20915
C         25.54140        45.71006         0.56815
C         24.34861        46.42261         0.78294
C         25.61936        48.51708         1.19447
C         24.37837        47.82982         1.11997
C         25.69822        49.95837         1.21878
C         27.80078        23.00205         0.22183
C         26.88423        22.31878        -0.76258
C         27.95261        24.46423        -0.19217
C         26.80398        25.17113        -0.56008
C         27.92741        27.39030        -0.27836
C         26.78208        26.63194        -0.59228
C         27.95923        28.79802        -0.45698
C         26.73727        29.48010        -0.73306
C         27.95671        31.62942        -0.74949
C         26.74788        30.90750        -0.88174
C         27.96712        33.07441        -0.85928
C         26.77521        33.78493        -1.16405
C         27.96693        35.92920        -0.96335
C         26.77402        35.18536        -1.16863
C         27.97463        37.37718        -1.03316
C         26.77025        38.12084        -1.28474
C         27.97272        40.25322        -1.06817
C         26.73775        39.52852        -1.27045
C         27.99660        41.65889        -0.96205
C         26.78413        42.51153        -1.26231
C         27.97894        44.43228        -0.21827
C         26.76916        43.78907        -0.42362
C         28.06565        45.72074         0.46079
C         26.82634        46.26695         1.12978
C         28.05687        48.42982         1.39464
C         26.85898        47.78617         1.18553
C         28.07028        49.83419         1.95555
C         26.85465        50.60036         1.50714
C         30.20712        20.73704         2.14109
C         29.03189        21.29039         1.64064
C         30.35907        22.62510         0.18888
C         29.07696        22.26159         0.62373
C         30.47627        24.65882        -0.21920
C         29.17850        25.21340         0.11522
C         30.45157        27.42315         0.02894
C         29.16224        26.73210         0.16409
C         30.43790        28.82854        -0.14234
C         29.18790        29.52737        -0.33227
C         30.41278        31.66791        -0.32181
C         29.18396        30.93683        -0.47045
C         30.40091        33.09006        -0.37504
C         29.17238        33.79521        -0.63284
C         30.40461        35.94419        -0.57100
C         29.17627        35.22119        -0.71600
C         30.42366        37.35432        -0.74487
C         29.19361        38.07506        -0.94709
C         30.42691        40.21396        -1.00018
C         29.20317        39.51912        -1.00315
C         30.45257        41.62140        -0.86263
C         29.21795        42.33795        -0.77851
C         30.44262        44.43695        -0.42655
C         29.23518        43.75656        -0.52319
C         30.43859        45.93787        -0.22822
C         29.24993        46.38576         0.59297
C         30.61031        48.41782         1.40122
C         29.31528        47.59774         1.51358
C         30.55639        49.89711         1.52994
C         29.38817        50.57510         1.76857
C         30.57021        52.72269         2.04887
C         29.41995        52.00442         2.00145
C         32.67017        19.54690         3.16189
C         32.71138        20.64429         2.27711
C         31.48282        21.23858         1.78976
C         32.81876        23.05299         0.70588
C         31.56773        22.30909         0.85842
C         32.88322        24.45441         0.31915
C         31.67996        25.25231         0.10539
C         32.89939        27.40009         0.02524
C         31.66724        26.70643         0.14834
C         32.89312        28.80242        -0.08156
C         31.66940        29.53279        -0.11850
C         32.84641        31.70870         0.07632
C         31.65213        30.97816        -0.13833
C         32.83466        33.13253         0.09417
C         31.61298        33.81550        -0.19141
C         32.84632        35.94440        -0.22748
C         31.61717        35.23949        -0.30801
C         32.85515        37.33899        -0.50941
C         31.67112        38.03787        -0.75926
C         32.93428        40.23396        -0.93092
C         31.69495        39.45865        -1.28664
C         32.93981        41.61763        -0.86501
C         31.68731        42.34304        -0.82296
C         32.89473        44.50467        -0.73798
C         31.68683        43.74990        -0.64203
C         32.91835        45.84929        -0.28996
C         31.77779        46.45828         0.22923
C         33.01330        48.69057         0.47590
C         31.86017        47.81005         0.82283
C         33.03945        50.01031         0.90731
C         31.86861        50.59237         1.61629
C         33.16881        52.90151         1.78520
C         31.88674        52.07214         1.96025
C         32.98821        54.33527         1.34271
C         35.05158        19.25994         2.88849
C         33.83306        18.87878         3.48418
C         35.16318        20.39252         2.06481
C         33.96438        21.11927         1.78991
C         35.27940        23.09010         1.05743
C         34.01017        22.41479         1.13102
C         35.31983        24.49029         0.74176
C         34.10033        25.15301         0.40369
C         35.46499        27.31173         0.04866
C         34.14222        26.58510        -0.00447
C         35.45978        28.81206         0.02976
C         34.15857        29.56573        -0.12112
C         35.25166        31.67394         0.58366
C         34.10888        31.00868         0.22747
C         35.21876        33.14156         0.95850
C         34.04082        33.87088         0.33234
C         35.29895        36.01463         0.25133
C         34.06543        35.25138         0.11161
C         35.36687        37.35349        -0.10868
C         34.16568        38.00456        -0.66774
C         35.43946        40.23169        -0.64538
C         34.19701        39.49516        -0.91395
C         35.39365        41.66539        -0.77568
C         34.19337        42.35081        -0.87030
C         35.40623        44.58432        -0.85134
C         34.15110        43.83045        -1.24829
C         35.41102        45.95849        -0.69294
C         34.09230        46.70091        -0.76005
C         35.33381        48.79331        -0.27960
C         34.17733        48.07535        -0.12508
C         35.28654        50.25463        -0.13709
C         34.15798        50.87320         0.58229
C         35.40067        53.01543         0.66919
C         34.21213        52.22623         0.90410
C         35.39708        54.43781         0.92934
C         34.08531        55.06517         1.05332
C         37.93919        15.84757         1.51902
C         36.98232        16.49368         2.30154
C         37.92920        18.67309         1.69810
C         36.97193        17.89627         2.36633
C         37.74172        20.12111         1.33739
C         36.43488        20.88525         1.43122
C         37.72920        23.04542         1.16861
C         36.49093        22.37206         1.25724
C         37.75801        24.47545         1.08886
C         36.56147        25.19539         0.83847
C         37.76497        27.35834         0.98033
C         36.63640        26.63172         0.64458
C         37.77040        28.81382         0.96423
C         36.59872        29.50193         0.65444
C         37.80368        31.71629         1.05196
C         36.48091        30.92973         0.91626
C         37.76180        33.17648         0.78357
C         36.55657        33.83638         0.73959
C         37.83379        36.06476         0.61061
C         36.50837        35.31766         0.72388
C         37.81249        37.43842         0.09835
C         36.61741        38.09700        -0.14244
C         37.86782        40.27483        -0.28656
C         36.62504        39.53504        -0.42760
C         37.89967        41.68860        -0.40068
C         36.68734        42.37245        -0.87580
C         37.90304        44.59304        -0.49012
C         36.68961        43.88669        -0.92033
C         37.86366        46.01592        -0.42418
C         36.63395        46.68795        -0.62165
C         37.86286        48.88616        -0.39029
C         36.59765        48.17785        -0.85752
C         37.85893        50.27599        -0.25634
C         36.59087        51.03351        -0.24231
C         37.83381        53.11435         0.31217
C         36.60004        52.40273         0.27634
C         37.84725        54.51249         0.62161
C         36.59474        55.16557         0.91863
C         37.81635        57.25953         1.32284
C         36.65227        56.58010         1.24712
C         39.80241        14.96946        -0.83757
C         40.07107        15.86476         0.21242
C         39.03921        16.56280         1.01905
C         40.25394        18.78745         0.94622
C         39.07434        17.98343         1.20928
C         40.19846        20.21594         0.86516
C         38.98483        20.90585         1.09990
C         40.20644        23.04555         1.01590
C         38.97831        22.32066         1.11324
C         40.20131        24.46920         1.21003
C         39.00468        25.17860         1.23840
C         40.24006        27.41188         1.57195
C         38.91361        26.64251         1.65909
C         40.26872        28.83775         1.19158
C         39.01375        29.55974         1.08458
C         40.27433        31.62615         0.42203
C         39.02811        30.94283         0.91361
C         40.26864        33.12999         0.59914
C         39.04972        33.85945         0.63497
C         40.30173        35.95052         0.35888
C         39.07574        35.26958         0.51492
C         40.33396        37.39402         0.22667
C         39.10772        38.09315        -0.29792
C         40.24927        40.29622         0.20063
C         39.07925        39.58260        -0.05980
C         40.27200        41.71845         0.19441
C         39.07952        42.42624        -0.15101
C         40.24843        44.61273         0.18450
C         39.08185        43.88045        -0.19245
C         40.27964        46.02535         0.11103
C         39.08682        46.74026        -0.19566
C         40.30462        48.88164         0.02570
C         39.08081        48.16826        -0.20459
C         40.28446        50.30000         0.06391
C         39.07190        50.99080        -0.01734
C         40.26691        53.17282         0.05671
C         39.05584        52.43398         0.12584
C         40.25617        54.59859         0.09919
C         39.05783        55.22960         0.54043
C         40.11601        57.44234         0.23952
C         39.16797        56.62583         1.09628
C         39.89134        58.81728         0.08863
C         42.15468        15.03076        -1.53425
C         40.85143        14.53458        -1.66111
C         42.46972        15.92949        -0.49443
C         41.42245        16.19568         0.40576
C         42.66134        18.82296         0.37088
C         41.53019        18.20898         0.94990
C         42.61888        20.24212         0.29119
C         41.41057        20.93650         0.61610
C         42.65077        23.04986         0.46039
C         41.42667        22.35223         0.72360
C         42.75909        24.45976         0.88488
C         41.51021        25.14963         1.37638
C         42.76928        27.35560         1.07794
C         41.54485        26.64118         1.47759
C         42.73841        28.74135         1.08755
C         41.50301        29.49709         1.10470
C         42.72744        31.64803         0.88853
C         41.54591        30.93989         0.88163
C         42.77134        33.08940         0.66232
C         41.50501        33.81644         0.52195
C         42.77145        35.97217         0.28135
C         41.51006        35.22738         0.41805
C         42.78029        37.43295         0.53234
C         41.50167        38.09459         0.42852
C         42.75307        40.31503         0.69897
C         41.46362        39.56122         0.58889
C         42.73591        41.78064         0.53145
C         41.48759        42.42797         0.45980
C         42.76254        44.64024         0.83026
C         41.42692        43.87751         0.65413
C         42.73583        46.07435         0.54363
C         41.52883        46.75022         0.29907
C         42.78281        48.90390         0.25681
C         41.53294        48.17650         0.21421
C         42.79071        50.31485         0.14113
C         41.52626        51.06367         0.43770
C         42.67498        53.21098        -0.29082
C         41.51442        52.49848        -0.01987
C         42.64346        54.63443        -0.53218
C         41.43488        55.34408        -0.27565
C         41.94951        57.62613        -1.29407
C         41.20848        56.80508        -0.41416
C         41.70631        58.99267        -1.47130
C         40.68243        59.60076        -0.75196
C         44.94487        16.03150        -0.78448
C         43.74656        16.66946        -0.39816
C         45.02622        18.78590        -0.26204
C         43.80666        18.05989        -0.06372
C         45.03361        20.21530        -0.18852
C         43.81031        20.95209        -0.00658
C         45.01064        23.08167        -0.54829
C         43.79845        22.37332         0.04275
C         45.00423        24.65181        -0.40387
C         43.93563        25.25984         0.48625
C         45.17572        27.38832         0.32049
C         43.96426        26.62680         0.67047
C         45.21294        28.75864         0.52210
C         44.02913        29.45440         1.04304
C         45.28008        31.65500         0.73045
C         44.02276        30.94829         1.05897
C         45.27772        33.09626         1.12928
C         43.97612        33.76223         0.71568
C         45.27005        35.94840         0.76184
C         44.05196        35.20104         0.44985
C         45.28285        37.40573         0.39673
C         43.97668        38.12714         0.63519
C         45.20553        40.27738         0.48581
C         44.02779        39.57585         0.60267
C         45.19981        41.72216         0.05144
C         43.96542        42.48148         0.49550
C         45.25724        44.56580         0.51350
C         44.01942        43.88629         0.61705
C         45.31832        46.02033         0.72327
C         43.99146        46.80405         0.69489
C         45.25374        48.92622         0.27805
C         44.02678        48.23075         0.35960
C         45.24188        50.33743         0.06551
C         43.99039        51.01238        -0.01473
C         45.24603        53.16616        -0.52243
C         43.94020        52.43602        -0.42013
C         45.19348        54.63739        -0.62501
C         43.93844        55.27674        -0.85362
C         45.21102        57.27853        -1.52864
C         44.01504        56.55550        -1.44446
C         46.16430        16.69499        -0.78160
C         47.49450        18.80760        -0.50474
C         46.24323        18.08770        -0.53023
C         47.48880        20.19887        -0.21754
C         46.27247        20.90485        -0.17272
C         47.58505        23.12750         0.02476
C         46.25656        22.37671         0.02021
C         47.55895        24.57299        -0.21682
C         46.37035        25.28001        -0.15355
C         47.63868        27.42333        -0.15398
C         46.38249        26.70395        -0.06754
C         47.66711        28.83548        -0.05069
C         46.34536        29.55826        -0.07846
C         47.68581        31.68540         0.26279
C         46.42445        30.99165         0.37649
C         47.69204        33.11906         0.36888
C         46.50142        33.82319         0.64973
C         47.70431        35.97915         0.53559
C         46.50596        35.25659         0.69888
C         47.80861        37.37660         1.06119
C         46.47994        38.13221         0.98448
C         47.75615        40.31397         0.56295
C         46.48458        39.61365         0.80470
C         47.74026        41.70302         0.32350
C         46.49186        42.45159         0.31477
C         47.79451        44.56729         0.58146
C         46.48103        43.83498         0.38692
C         47.75888        46.04572         0.23922
C         46.55037        46.76514         0.39906
C         47.73012        48.90539         0.34183
C         46.51855        48.19421         0.31046
C         47.71795        50.36850         0.41589
C         46.47655        51.09480         0.07724
C         47.73484        53.21605        -0.29804
C         46.50102        52.46815        -0.16009
C         47.69308        54.59870        -0.65049
C         46.42374        55.32578        -0.76262
C         46.40214        56.69067        -1.12439
C         49.92681        18.84366        -0.90078
C         48.72664        18.18855        -0.90369
C         50.09493        20.15169        -0.27610
C         48.76076        20.91612         0.02002
C         50.10901        23.07384        -0.02815
C         48.81760        22.36690        -0.04947
C         50.10279        24.58076        -0.13202
C         48.83459        25.25079        -0.62888
C         50.07630        27.42888        -0.53063
C         48.85398        26.73341        -0.37253
C         50.08439        28.84540        -0.46508
C         48.88261        29.54009        -0.18184
C         50.11963        31.69911        -0.00717
C         48.89367        30.99567        -0.00858
C         50.13347        33.13688         0.10349
C         48.90707        33.83122         0.16327
C         50.18247        36.01240         0.21996
C         48.88766        35.31237        -0.08050
C         50.19135        37.43337         0.32425
C         48.98831        38.15410         0.52577
C         50.20374        40.27176         0.22492
C         48.97447        39.57135         0.46457
C         50.19219        41.68629         0.01809
C         48.95904        42.37660         0.04987
C         50.13274        44.56693        -0.56900
C         48.89672        43.84188        -0.16088
C         50.21118        46.02948        -0.27375
C         48.97430        46.72126         0.04342
C         50.30298        48.93690         0.08991
C         48.99630        48.16652         0.33527
C         50.26890        50.38211        -0.12478
C         49.06952        51.15086         0.19965
C         50.18232        53.18945        -0.66750
C         48.98691        52.54059        -0.26701
C         50.11207        54.55841        -1.00385
C         48.90603        55.24131        -0.97209
C         52.53833        20.25259        -0.76161
C         51.33925        20.94134        -0.49041
C         52.56970        23.06799        -0.56116
C         51.36360        22.34655        -0.34561
C         52.59416        24.53303        -0.55859
C         51.35523        25.30878        -0.47255
C         52.59304        27.40796        -1.07486
C         51.31966        26.66990        -0.68428
C         52.61927        28.87934        -0.70388
C         51.31305        29.62896        -0.87719
C         52.55945        31.69705        -0.24466
C         51.36796        31.02592        -0.30089
C         52.62996        33.07726         0.36227
C         51.36543        33.85677         0.12654
C         52.64820        35.98863         0.21357
C         51.38980        35.27914         0.19443
C         52.65871        37.40749         0.19612
C         51.43553        38.13924         0.24237
C         52.67229        40.27834         0.10051
C         51.43433        39.55996         0.18990
C         52.65103        41.70300        -0.11850
C         51.43071        42.37672        -0.22410
C         52.68225        44.51109        -0.86567
C         51.37453        43.71752        -0.93229
C         52.65966        46.01160        -0.77111
C         51.38650        46.71519        -0.48556
C         52.70913        48.89332        -0.56572
C         51.37374        48.20544        -0.69362
C         52.69652        50.30128        -0.62660
C         51.44048        51.03452        -0.55866
C         52.67576        53.11778        -0.86534
C         51.44271        52.45837        -0.70669
C         53.73834        20.93312        -0.85105
C         55.04996        23.03395        -0.88954
C         53.78536        22.34304        -0.76053
C         55.02672        24.49622        -1.01818
C         53.78005        25.21257        -0.72521
C         55.11064        27.39677        -0.80972
C         53.81114        26.70428        -0.48273
C         55.08518        28.86831        -1.10482
C         53.79516        29.55477        -0.69048
C         55.09682        31.72836        -0.41852
C         53.79554        31.06614        -0.82476
C         55.10183        33.13637        -0.14049
C         53.88724        33.84593         0.04011
C         55.11825        35.99127         0.10244
C         53.88014        35.25907         0.12783
C         55.11912        37.42061         0.15825
C         53.89925        38.13347         0.17074
C         55.14126        40.29119         0.20002
C         53.89333        39.56872         0.15415
C         55.13538        41.72730         0.02624
C         53.91558        42.41912        -0.22159
C         55.13737        44.55280        -0.40796
C         53.93325        43.81190        -0.48650
C         55.14120        46.00121        -0.49816
C         53.93067        46.73213        -0.53382
C         55.17188        48.86879        -0.59759
C         53.92515        48.15809        -0.54646
C         55.17704        50.28910        -0.70218
C         53.92937        51.02186        -0.72170
C         53.88284        52.42550        -0.85240
C         57.50838        23.09352        -0.87109
C         56.28827        22.39390        -0.92594
C         57.58281        24.49027        -0.76762
C         56.34427        25.25759        -0.97089
C         57.55065        27.43471        -0.60022
C         56.31849        26.72908        -0.74895
C         57.57252        28.85557        -0.59087
C         56.35582        29.60356        -0.74103
C         57.57830        31.76837        -0.54767
C         56.30618        31.00818        -0.55722
C         57.59958        33.16310        -0.09015
C         56.33961        33.86887        -0.01592
C         57.66271        36.00582         0.09101
C         56.33741        35.26862         0.09148
C         57.54437        37.44277         0.53906
C         56.36365        38.14245         0.36484
C         57.59042        40.32113         0.54111
C         56.34030        39.59657         0.41188
C         57.59784        41.76078         0.32028
C         56.36448        42.44520         0.03461
C         57.60315        44.57466        -0.21806
C         56.36729        43.85858        -0.18017
C         57.61662        45.98725        -0.42276
C         56.38496        46.70656        -0.49680
C         57.63679        48.83635        -0.69750
C         56.39949        48.13745        -0.59475
C         57.61402        50.24723        -0.78348
C         56.42508        50.95242        -0.78476
C         60.04282        24.55775        -0.55422
C         58.79694        25.20102        -0.52347
C         60.04212        27.37988        -0.15413
C         58.72786        26.64677        -0.06940
C         60.02208        28.81929        -0.09427
C         58.82531        29.52395        -0.33799
C         60.09323        31.70324        -0.00800
C         58.89292        30.98468        -0.45622
C         60.05007        33.10055         0.16685
C         58.80002        33.79384         0.22269
C         60.05816        35.90732         0.96003
C         58.71259        35.17769         0.86467
C         60.04556        37.41008         1.08639
C         58.70319        38.15553         1.18743
C         60.03798        40.32277         0.98726
C         58.76603        39.62209         0.79000
C         60.05909        41.84301         0.75003
C         58.80106        42.48443         0.33400
C         60.07455        44.54500        -0.19873
C         58.83514        43.87068        -0.03431
C         60.09579        45.95470        -0.48158
C         58.86353        46.68093        -0.53266
C         60.12084        48.74912        -0.88728
C         58.88544        48.09861        -0.71058
C         61.23462        25.25981        -0.36618
C         61.22996        26.65623        -0.19744
C         61.22801        29.55333         0.16962
C         61.25613        30.92446         0.24955
C         61.27751        33.86715         0.28022
C         61.28306        35.19096         0.54093
C         61.26535        38.19589         0.78156
C         61.27859        39.53686         0.80401
C         61.31067        42.52795         0.41706
C         61.29904        43.80340        -0.04861
C         61.31169        46.65626        -0.66838
C         61.31675        48.02865        -0.87892
O         29.10359        25.93807         1.39861
O         44.59457        52.58759        -1.73273
O         49.57607        20.28846         1.07185
O         34.35083        38.52315        -2.04461
O         36.11369        18.47088         3.30429
O         41.98816        39.94260         1.91318
O         50.14319        23.98864         1.18146
O         42.92181        57.08378        -2.13483
O         46.29712        38.94348         2.16382
O         24.54736        42.31385        -2.23684
O         46.76093        22.79930         1.27983
O         31.63038        47.83902         2.30474
O         35.04945        29.34448        -1.27540
O         33.69550        46.86524        -2.09758
O         37.01667        31.33169         2.23375
O         24.61027        35.69889        -0.12710
O         43.53417        35.57062        -0.92754
O         32.11937        51.05106         2.99696
O         41.93751        44.27074         1.97546
O         49.04617        44.30181        -1.53508
O         60.25621        36.55160         2.26847
O         41.04361        27.13745         2.77184
O         58.37905        31.50130        -1.74209
O         34.98201        26.75262        -1.20876
O         41.71621        16.95586         1.55003
O         36.80101        20.19804         0.17310
O         44.91447        22.74498        -1.90433
O         36.86787        43.07292        -2.16235
O         52.76880        45.32883        -2.09735
O         60.05026        41.26569         2.11174
O         55.69471        24.95929        -2.25849
O         35.70235        50.89635        -1.41323
O         44.68293        46.47456         1.96404
O         37.13880        35.92113         1.90124
O         49.98248        48.47550         1.41730
O         24.97809        37.79881        -2.91415
O         42.42666        24.54025         2.33533
O         48.48456        50.93099         1.52082
O         30.46599        23.46118        -0.94094
O         44.21667        30.21175         2.33220
O         23.11226        35.94805        -3.48419
H         23.81648        36.60688        -3.70674
O         39.20981        37.93780        -1.76346
H         38.42855        38.37758        -2.16342
O         55.02578        28.93348        -2.59694
H         54.31659        28.28828        -2.86399
O         58.44510        26.54423         1.39778
H         59.23939        26.14293         1.81257
O         39.79883        56.50024         2.41470
H         39.23356        55.91052         2.95692
O         48.12954        44.49414         1.99602
H         47.42059        44.94395         2.50339
O         31.76105        39.31667        -2.75054
H         32.64997        38.93228        -2.94953
O         58.36109        38.20598         2.61277
H         59.07212        38.70393         3.07050
O         58.22074        34.96214         2.19912
H         58.63022        35.65566         2.77079
O         25.82597        32.95034        -3.14546
H         25.06477        32.48459        -3.55353
O         45.51106        37.46778        -1.05341
H         44.86551        36.83848        -1.46319
O         38.54800        26.60212         3.06910
H         39.39543        26.56020         3.57348
O         36.55469        48.37128        -2.30223
H         36.17463        49.26913        -2.45711
O         41.50049        51.15987         1.91563
H         41.50627        50.24467         2.26977
O         33.78409        52.99066         3.10581
H         33.56554        52.14706         3.56817
O         45.99194        29.65930        -1.51382
H         45.99128        28.74915        -1.88231
O         51.22714        43.30829        -2.31411
H         51.45228        44.09087        -2.86700
O         44.66192        25.16633        -1.72021
H         44.64454        24.33380        -2.29429
O         45.10238        41.67469        -1.42745
H         44.34599        41.09639        -1.66342
O         40.25355        31.42652        -1.04408
H         41.02771        31.89946        -1.41884
O         34.97620        33.19250         2.39971
H         35.68630        32.64667         2.81750
O         29.28965        47.08857         2.89597
H         30.23969        46.96379         3.15022
O         48.70782        35.45525        -1.56258
H         49.36904        34.87244        -1.99462
O         34.10972        43.83900        -2.70468
H         35.02074        43.63468        -3.01919
O         45.31736        33.13689         2.60186
H         44.91000        32.30717         2.93704
O         53.66100        26.87694         0.96701
H         54.43124        26.46393         1.41145
O         50.96336        48.39160        -2.09583
H         51.57591        47.86885        -2.65707
O         26.83847        45.81813         2.52286
H         27.66707        46.17645         2.92955
O         58.15041        36.06268        -1.29115
H         57.43194        36.42461        -1.85155
O         48.91542        25.06763        -2.09169
H         48.10705        25.45808        -2.48817
O         52.70293        32.87229         1.83025
H         51.84443        32.49289         2.11673
O         26.99589        42.96065        -2.63279
H         26.10056        43.10773        -3.01942
O         23.80474        29.45858         0.53507
H         22.95247        29.94262         0.57886
O         27.94474        49.65455         3.41206
H         28.49618        48.87257         3.65021
O         30.24251        46.54824        -1.55657
H         31.08494        46.44232        -2.05608
O         53.68489        31.28342        -2.28694
H         54.34159        30.66259        -2.70344
O         27.04252        23.06137         1.48253
H         26.22368        23.57435         1.31209
O         51.22160        29.78409        -2.34448
H         51.94888        30.41456        -2.59009
O         52.69150        27.38335        -2.52844
H         51.98737        27.99414        -2.86073
O         48.11993        37.20839         2.48449
H         47.65612        37.94636         2.95279
H         23.30013        23.31366        -1.76746
H         21.22472        24.50799        -2.36942
H         21.12434        26.97423        -2.30609
H         21.17353        28.88200        -2.50616
H         21.05059        31.32364        -2.31100
H         20.87484        33.21071        -1.43137
H         20.76977        35.61585        -1.76416
H         20.91516        37.46096        -0.93765
H         20.94658        39.82991        -0.37536
H         20.99111        41.63406         0.28532
H         20.98859        44.01625         0.77912
H         20.92223        45.99758         0.71688
H         23.14697        49.56993         1.59755
H         20.99593        48.38586         1.35300
H         25.08478        22.49589        -1.87668
H         24.80408        50.54693         0.96674
H         26.99377        21.24513        -0.97159
H         26.87127        51.69882         1.50090
H         30.12307        19.92569         2.87544
H         28.06108        20.95383         2.02750
H         30.51534        53.81306         2.17469
H         28.46909        52.53560         2.14187
H         31.71982        19.20803         3.59197
H         32.00250        54.81942         1.38582
H         33.82350        18.02042         4.16765
H         33.98810        56.13937         0.83619
H         37.89134        14.75863         1.38122
H         36.20812        15.92240         2.82951
H         37.78953        58.30273         1.66976
H         35.71329        57.09991         1.48784
H         38.77311        14.64328        -1.04207
H         39.06545        59.29985         0.62535
H         42.91793        14.75078        -2.27394
H         40.62695        13.84008        -2.48261
H         42.31911        59.55996        -2.18323
H         40.47867        60.67392        -0.86499
H         44.91841        14.96291        -1.04152
H         45.20165        58.29072        -1.95279
H         47.07450        16.12289        -1.00660
H         47.32784        57.27534        -1.19175
H         50.78058        18.39042        -1.42401
H         48.68940        17.18308        -1.34561
H         51.01574        55.10171        -1.30946
H         48.91296        56.30254        -1.25037
H         52.53599        19.15826        -0.84958
H         52.70562        54.21085        -0.96655
H         54.65949        20.36088        -1.01923
H         54.81144        53.00251        -0.95257
H         58.42745        22.49539        -0.80488
H         56.33916        21.29666        -0.90792
H         58.55321        50.81162        -0.84868
H         56.46572        52.04722        -0.85368
H         60.09976        23.48627        -0.79028
H         60.16360        49.83472        -1.04238
H         62.19311        24.72641        -0.41956
H         62.19799        27.17431        -0.16767
H         62.15204        29.00211         0.38747
H         62.19188        31.42084         0.54059
H         62.22961        33.36577         0.05721
H         62.24085        35.72745         0.57782
H         62.21114        37.65360         0.64501
H         62.23063        40.06889         0.67110
H         62.26865        42.02929         0.61539
H         62.25906        44.29287        -0.25758
H         62.27142        46.12469        -0.65032
H         62.26976        48.55484        -1.02736
