         429
 CSIRO Nanostructure Databank - Neutral Graphene Oxide Data Set
C          1.19651         3.93360        -1.90339
C         -0.01863         4.63996        -1.79901
C          1.07647         6.34370        -0.32992
C         -0.08982         5.83899        -1.13370
C          1.12123         7.83831        -0.11331
C         -0.04050         8.60781        -0.14683
C          1.08667        10.59087         0.71892
C         -0.04569         9.97407         0.18358
C          1.11672        11.98488         1.07106
C         -0.08101        12.73509         1.16414
C          1.14340        14.84264         1.28696
C         -0.07482        14.10804         1.31390
C          1.14170        16.31457         1.34819
C         -0.05645        17.04185         1.53040
C          1.11354        19.18029         1.50249
C         -0.06720        18.43748         1.58695
C          1.08544        20.69699         1.58913
C         -0.02999        21.30217         0.75251
C          1.13027        23.48584         0.62868
C         -0.01812        22.58770         0.36263
C          1.20908        24.81798        -0.01170
C         -0.02276        25.52848        -0.25372
C          1.18043        27.51697        -1.06066
C         -0.04942        26.82644        -0.65371
C          1.22297        28.99847        -1.13448
C          0.04197        29.72166        -1.36936
C          1.25868        31.83021        -1.40939
C          0.05335        31.10379        -1.49725
C          1.25760        33.29933        -1.52485
C          0.07705        34.02161        -1.86364
C          1.27421        36.14629        -1.81508
C          0.08917        35.39585        -2.01588
C          1.33159        37.55647        -2.05166
C          3.64330         3.87427        -1.68503
C          2.41216         4.51611        -1.44568
C          3.60734         6.45032        -0.47454
C          2.40014         5.78943        -0.79116
C          3.59720         7.77444         0.12154
C          2.35672         8.42915         0.29253
C          3.63438        10.50063         1.17225
C          2.28917         9.76804         0.89653
C          3.59839        11.96631         1.18404
C          2.37478        12.67517         1.21783
C          3.60724        14.84544         1.00568
C          2.34650        14.11832         1.23515
C          3.61916        16.36235         1.00020
C          2.34721        17.05047         1.28489
C          3.58350        19.18241         1.41811
C          2.34540        18.47176         1.41760
C          3.58111        20.58976         1.23838
C          2.41006        21.33162         1.21201
C          3.68057        23.47093         0.55878
C          2.44511        22.79450         0.99777
C          3.68658        24.75702         0.07153
C          2.43979        25.44345        -0.19601
C          3.72605        27.58745        -0.67394
C          2.48987        26.78331        -0.82073
C          3.70608        28.96872        -0.74032
C          2.45154        29.69151        -1.00405
C          3.73693        31.81749        -1.08381
C          2.45186        31.10110        -1.16969
C          3.70734        33.32134        -1.08928
C          2.42939        34.03382        -1.28405
C          3.65669        36.20467        -1.21792
C          2.45643        35.46030        -1.40285
C          3.71612        37.58798        -1.52080
C          2.51067        38.24872        -1.93687
C          6.08938         3.85487        -1.60915
C          4.86080         4.50521        -1.35611
C          6.08984         6.49267        -0.51502
C          4.85069         5.82465        -0.78772
C          6.09187         7.77237         0.09625
C          4.85928         8.44701         0.40178
C          6.14859        10.51625         1.06338
C          4.87620         9.78995         0.84097
C          6.16162        11.99447         1.09002
C          4.88538        12.66504         1.35486
C          6.15849        14.89167         1.10060
C          4.89191        14.17932         1.32556
C          6.10746        16.33795         1.13931
C          4.91414        17.02919         1.22697
C          6.10702        19.23184         1.52229
C          4.85314        18.44583         1.76140
C          6.10959        20.57046         1.34060
C          4.87000        21.25071         0.92076
C          6.22377        23.41044         0.50181
C          4.92823        22.67668         0.51018
C          6.23885        24.70290         0.05306
C          4.97254        25.30085        -0.55415
C          6.26605        27.60261        -0.32043
C          5.00572        26.83548        -0.62738
C          6.15534        29.06217        -0.07712
C          4.91852        29.73910        -0.43915
C          6.02749        31.92753        -0.00009
C          4.89156        31.12272        -0.47903
C          6.12127        33.36591        -0.31620
C          4.84014        34.06152        -0.47026
C          6.14572        36.22627        -0.70746
C          4.84065        35.56864        -0.62550
C          6.16131        37.61580        -1.07528
C          4.94667        38.27989        -1.40003
C          8.53171         3.87656        -1.74685
C          7.31609         4.52126        -1.41211
C          8.56817         6.56922        -0.79935
C          7.31968         5.85903        -0.89407
C          8.60615         7.82633        -0.20907
C          7.42594         8.28813         0.60933
C          8.66564        10.61545         0.64473
C          7.45538         9.79319         0.91744
C          8.62143        12.02297         0.85381
C          7.35506        12.71485         1.07094
C          8.62945        14.87911         1.21380
C          7.35884        14.17259         1.12171
C          8.64899        16.27730         1.46205
C          7.40577        17.05115         1.24804
C          8.52929        19.15282         2.29475
C          7.40951        18.51241         1.50337
C          8.59923        20.68053         1.99351
C          7.34433        21.37466         1.50614
C          8.67553        23.35140         0.85472
C          7.43369        22.71246         0.89355
C          8.73902        24.74865         0.51969
C          7.56492        25.40229        -0.17739
C          8.59874        27.58344         0.51524
C          7.48836        26.88618         0.10282
C          8.51096        29.04388         0.70241
C          7.28534        29.75208         0.30090
C          8.58034        31.96242         0.27661
C          7.30045        31.22098         0.43332
C          8.57145        33.34646        -0.06074
C          7.31849        34.06237        -0.24512
C          8.59013        36.16901        -0.64501
C          7.33779        35.50134        -0.50399
C          8.61242        37.58686        -0.91088
C          7.39992        38.28731        -1.10795
C         10.94928         3.90612        -2.12906
C          9.76323         4.57383        -1.77111
C         10.97348         6.67811        -1.33384
C          9.77701         5.96110        -1.34252
C         11.05866         7.99240        -0.76340
C          9.92208         8.48709         0.09812
C         11.02542        10.76443         0.04054
C          9.85090         9.99989         0.20029
C         11.03355        12.11683         0.42887
C          9.83710        12.76118         0.81568
C         11.08392        14.89870         1.25527
C          9.85460        14.18487         1.11454
C         11.09480        16.28139         1.59071
C          9.84988        16.96117         1.71678
C         11.15777        19.12647         2.11203
C          9.85196        18.38368         2.15863
C         11.14340        20.62626         2.01505
C          9.88224        21.34308         1.66675
C         11.17854        23.31114         0.73332
C          9.89921        22.63394         1.19449
C         11.16684        24.80672         0.96474
C          9.90006        25.48841         0.77915
C         11.04776        27.67901         0.93211
C          9.86480        26.92989         0.76992
C         11.06591        29.08438         0.75075
C          9.80431        29.84058         0.77988
C         11.03912        31.90280         0.10599
C          9.79843        31.26375         0.38028
C         11.03577        33.30255        -0.21997
C          9.80968        34.02153        -0.27832
C         11.04120        36.10570        -0.81294
C          9.81682        35.43974        -0.57315
C         11.07207        37.54206        -1.04819
C          9.84822        38.25652        -1.03493
C         13.46743         4.01175        -2.62108
C         12.15023         4.64185        -2.46352
C         13.44201         6.78246        -1.79420
C         12.14442         6.15932        -2.04413
C         13.46531         8.08567        -1.24548
C         12.22672         8.71960        -0.85806
C         13.54442        10.74584        -0.21690
C         12.22166        10.21458        -0.70935
C         13.59377        12.16347         0.18536
C         12.30448        12.88253         0.43635
C         13.54803        14.82732         1.35845
C         12.33619        14.21056         1.09582
C         13.59532        16.25226         1.58657
C         12.36059        16.98963         1.65419
C         13.64095        19.09817         1.67808
C         12.40163        18.39604         1.75571
C         13.68614        20.52452         1.65971
C         12.43855        21.30681         1.75464
C         13.63898        23.36447         1.18727
C         12.44668        22.67965         1.23158
C         13.63228        24.81247         1.04160
C         12.34969        25.50150         1.07030
C         13.57125        27.71801         0.91918
C         12.32306        26.98596         1.35194
C         13.53353        29.05469         0.63278
C         12.27655        29.79315         0.51696
C         13.51277        31.80183        -0.39067
C         12.26189        31.16019         0.16989
C         13.51657        33.30745        -0.34658
C         12.27958        33.99367        -0.43431
C         13.50556        36.05594        -0.98121
C         12.27224        35.38432        -0.75613
C         13.50160        37.39971        -1.66978
C         12.27148        38.18760        -1.35685
C         15.91701         4.11236        -2.86916
C         14.63462         4.74237        -2.60308
C         15.86101         6.82798        -2.00473
C         14.63998         6.13673        -2.16638
C         15.91866         8.09687        -1.37878
C         14.70474         8.72482        -0.99172
C         15.97188        10.55810         0.18048
C         14.70394        10.04698        -0.39282
C         15.99876        11.95167         0.69943
C         14.85804        12.69080         0.74956
C         16.07257        14.79958         1.19338
C         14.81157        13.99562         1.52742
C         16.10791        16.16894         1.91034
C         14.82949        16.94443         1.65391
C         16.11945        19.07814         1.61228
C         14.87062        18.35921         1.63507
C         16.12024        20.47847         1.60124
C         14.89932        21.22453         1.58038
C         16.09079        23.38657         1.26252
C         14.90336        22.67472         1.40332
C         16.09731        24.79935         0.96466
C         14.83155        25.50238         0.97818
C         15.99703        27.60409         0.31193
C         14.88699        27.00234         1.18008
C         16.11622        29.08505         0.55838
C         14.78481        29.85190         0.61186
C         16.00337        31.89606        -0.01304
C         14.79553        31.21986         0.13354
C         16.01327        33.31924        -0.29336
C         14.73367        34.01512        -0.38973
C         15.94806        36.20242        -0.61090
C         14.70429        35.41355        -0.68048
C         15.95298        37.59706        -1.11326
C         14.76208        38.19095        -1.49034
C         18.37831         4.18773        -3.09845
C         17.08271         4.82600        -2.92963
C         18.35037         7.06194        -2.58471
C         17.06250         6.28057        -2.65282
C         18.38638         8.19210        -1.61782
C         17.21028         8.69525        -1.08338
C         18.60301        10.41787         0.30668
C         17.25057         9.80284        -0.08453
C         18.54832        11.91534         0.57968
C         17.30475        12.43102         1.31819
C         18.59726        14.70604         1.35238
C         17.31749        13.96003         1.49321
C         18.54550        16.18654         1.15368
C         17.35785        16.93762         1.52830
C         18.62115        19.05742         1.47338
C         17.38680        18.34805         1.55520
C         18.65331        20.47504         1.42079
C         17.39736        21.20898         1.66707
C         18.62237        23.37396         1.03497
C         17.38695        22.71861         1.49421
C         18.57545        24.74235         0.66076
C         17.31220        25.46509         0.69526
C         18.46653        27.54295         0.00925
C         17.32818        26.88595         0.39270
C         18.50373        29.02041        -0.34040
C         17.27282        29.79217         0.05935
C         18.51021        31.88611        -0.25064
C         17.26361        31.17724        -0.00247
C         18.48771        33.28332        -0.49582
C         17.22531        33.98419        -0.46480
C         18.49125        36.14795        -0.91911
C         17.25975        35.45850        -0.50221
C         18.44149        37.55126        -1.18396
C         17.20435        38.25567        -1.22244
C         19.54329         4.86892        -3.05577
C         20.86397         6.88632        -2.34096
C         19.64329         6.38231        -3.05899
C         20.87941         8.04386        -1.65169
C         19.67476         8.77048        -1.27669
C         20.94728        10.74680        -0.50647
C         19.74523         9.97303        -0.58036
C         20.95327        11.99133         0.05197
C         19.75369        12.61585         0.58281
C         21.04462        14.68360         1.24178
C         19.84420        13.99407         1.01023
C         21.06770        16.04941         1.51564
C         19.93142        16.89681         1.22532
C         21.11249        19.09845         1.16032
C         19.93340        18.33519         1.69950
C         21.05825        20.43298         0.95739
C         19.84302        21.19105         1.17446
C         21.00594        23.32314         0.59079
C         19.83081        22.63081         0.96891
C         20.96412        24.66230         0.22902
C         19.76583        25.39052         0.24588
C         20.97904        27.61330        -0.02047
C         19.73781        26.79379        -0.32053
C         20.97599        28.94150         0.14636
C         19.70308        29.73368         0.31240
C         20.92669        31.89033        -0.37720
C         19.74074        31.18605        -0.16022
C         20.90866        33.25721        -0.68031
C         19.71033        33.98391        -0.72976
C         20.87446        36.13096        -1.35883
C         19.70063        35.42791        -1.01294
C         20.84364        37.51189        -1.58768
C         19.65324        38.22107        -1.50325
O          4.11830        32.58430        -2.29857
O          4.50735        34.90697         0.66633
O          7.77258        21.42903         2.93249
O          5.89453        27.26767        -1.72620
O         17.49284        22.10826         2.83235
O          1.63390        23.51283         2.00964
O          4.88520        13.47819         2.60473
O         10.63132        18.59857         3.38631
O         18.04542        14.34289         2.69146
O          6.91562        10.01601         2.26673
O          7.68623        18.05319         0.14835
O          3.61434        15.57651        -0.25780
O         15.60142        29.60922         1.80405
O         19.25169        16.65558        -0.03678
O          1.89609        26.84994        -2.16555
O          6.35806        31.71355         1.43123
O         11.84444        21.25987         3.14323
O          9.01622        29.53621         1.99103
O         16.47761         9.54068         1.13191
O         17.45923         7.22162        -3.73946
O          4.91215        21.61388        -0.52360
O         16.62209        36.06903         0.68635
O         11.90877         5.74222        -3.41142
O          2.85561         9.85945         2.23686
O         12.97741        13.00402        -0.89430
O         13.43778        37.07783        -3.12960
H         12.58184        36.62385        -3.28661
O          8.09478        18.99126         3.66127
H          8.87087        19.19017         4.23443
O          0.87466         5.78010         1.03127
H          0.90015         4.80313         0.94253
O          7.85000        25.25740        -1.61399
H          7.05562        25.60554        -2.08998
O         13.47216        31.46092        -1.83462
H         14.23001        31.91499        -2.26153
O         14.84094        13.61011         2.92068
H         15.19606        14.36972         3.44355
O         12.36226        27.08043         2.83309
H         12.08676        27.99093         3.07712
O         20.11478        18.23962         3.15352
H         20.12472        19.15275         3.51213
O         18.66962        29.13084        -1.78828
H         17.81428        28.88041        -2.19922
O          4.95495        24.83676        -1.93498
H          4.25477        25.33022        -2.41357
O          0.80964        21.04388         2.98105
H          0.94052        22.02065         3.05250
O          4.80757        18.27049         3.23242
H          5.70732        18.43702         3.59430
O         11.19223        23.12283        -0.72971
H         10.41872        23.60725        -1.09459
O          7.60507         7.61169         1.91457
H          7.13427         8.18633         2.57017
O         19.41842        29.76884         1.73498
H         20.12263        30.28403         2.17955
O         16.03772        15.04076        -0.22743
H         16.72858        15.69688        -0.46218
O         18.96425         9.83767         1.59979
H         18.21580        10.05977         2.20843
O         19.73969        26.61902        -1.77836
H         19.59902        27.52226        -2.15709
O         19.85470         6.73714        -4.45633
H         18.95513         6.88219        -4.83679
O         16.12600        15.93145         3.35172
H         16.19483        16.79950         3.80235
O         12.06392        10.71842        -2.08143
H         12.30341        11.67950        -2.04934
O         15.57760        27.48424        -1.08244
H         15.49132        26.52911        -1.29026
O         17.37602        11.84402         2.64352
H         17.82857        12.50530         3.21913
O         10.27999         8.02525         1.45215
H          9.43208         7.81664         1.92470
O         15.22720        27.17418         2.57472
H         14.40358        27.00838         3.09043
H          1.22905         2.96447        -2.41967
H         -0.92009         4.22469        -2.27299
H         -1.06480         6.33477        -1.03527
H         -0.98921         8.15871        -0.46763
H         -0.97562        10.54251         0.04772
H         -1.04760        12.21437         1.12873
H         -1.03674        14.63011         1.39459
H         -1.01546        16.51556         1.62155
H         -1.02919        18.95193         1.72078
H         -0.89833        20.67514         0.49984
H         -0.84746        22.97934        -0.24582
H         -0.96613        25.03768         0.02427
H         -1.00237        27.37333        -0.64990
H         -0.91213        29.18892        -1.47919
H         -0.89801        31.61926        -1.67971
H         -0.86189        33.48465        -2.05208
H         -0.82933        35.91828        -2.32027
H          0.41295        38.07708        -2.35932
H          3.65757         2.88463        -2.16402
H          2.54520        39.32625        -2.15303
H          6.08571         2.83459        -2.01944
H          4.97834        39.35519        -1.62949
H          8.50123         2.83042        -2.08608
H          7.43142        39.35905        -1.35230
H         10.95983         2.80663        -2.16885
H          9.85675        39.33945        -1.22663
H         13.50820         2.92466        -2.79025
H         12.26861        39.27155        -1.54580
H         15.93480         3.02523        -3.04216
H         14.76502        39.23289        -1.84628
H         18.38869         3.09178        -3.20658
H         17.21823        39.31824        -1.50950
H         20.48958         4.31894        -3.17487
H         21.80497         6.34482        -2.52037
H         21.83485         8.39678        -1.23741
H         21.86279        10.37582        -0.98846
H         21.88324        12.57510         0.03841
H         21.99328        14.12898         1.28482
H         21.95722        16.50041         1.97748
H         22.05583        18.55304         1.01032
H         21.96323        20.94752         0.60877
H         21.97230        22.80561         0.54861
H         21.89424        25.14185        -0.10371
H         21.94867        27.09477        -0.07311
H         21.93574        29.45929         0.30652
H         21.89750        31.37833        -0.32004
H         21.86885        33.76131        -0.85294
H         21.83406        35.60435        -1.44536
H         21.77484        38.03603        -1.84443
H         19.63523        39.30244        -1.70000
