         280
 CSIRO Nanostructure Databank - Neutral Graphene Oxide Data Set
C         30.20354        31.64889        -1.03760
C         30.46377        32.77358        -0.45863
C         30.32099        35.92249         0.04801
C         30.35114        37.14452         0.35888
C         30.35511        40.24103         0.91113
C         30.30897        41.46667         0.76905
C         32.73137        28.97694        -1.47013
C         31.60227        29.49039        -1.52969
C         32.90675        31.59618        -0.25670
C         31.01095        30.54808        -0.76261
C         32.76986        32.96987        -0.22429
C         31.49402        33.66459        -0.20976
C         32.65044        35.89257        -0.12703
C         31.45875        35.10558        -0.12539
C         32.65281        37.29369         0.10271
C         31.46891        37.99007         0.44780
C         32.70674        40.17120         0.59891
C         31.53303        39.31348         1.15035
C         32.76431        41.59687         1.09105
C         31.26871        42.46544         0.27824
C         32.71189        44.33264         0.90700
C         31.60348        43.74954         0.91116
C         35.60087        27.27836        -1.24942
C         35.33121        28.70480        -0.89723
C         34.04876        29.43969        -1.00562
C         35.37927        31.58732        -0.53766
C         34.07453        30.97378        -1.03192
C         35.26904        32.99778         0.03122
C         34.02569        33.77345        -0.51892
C         35.21638        35.92290         0.47365
C         33.93679        35.16661         0.09511
C         35.20506        37.37000         0.21741
C         33.93585        38.01659        -0.29819
C         35.18274        40.39938        -0.31957
C         33.89176        39.54354        -0.08097
C         35.31543        41.54431         0.71621
C         34.03582        42.35686         0.84767
C         35.23338        44.55859         0.56520
C         34.03449        43.72251         0.88052
C         35.45539        45.73285         1.48756
C         37.89626        27.24006        -0.31820
C         36.70121        26.78866        -0.90558
C         37.72513        28.72901         0.03761
C         36.69298        29.46241        -0.87106
C         37.75252        31.57210         0.22417
C         36.54167        30.91124        -0.42981
C         37.84945        33.07243         0.00333
C         36.56221        33.83808        -0.20348
C         37.81914        35.94457         0.36984
C         36.55214        35.13302         0.63419
C         37.76418        37.41011         0.11460
C         36.44060        38.04497        -0.17890
C         37.78595        40.24654        -0.23125
C         36.46685        39.55458        -0.36427
C         37.73372        41.73293        -0.13344
C         36.53794        42.39882         0.42089
C         37.82125        44.45756         0.77767
C         36.56207        43.77370         0.60481
C         37.87861        45.73886         1.56161
C         36.53130        46.29128         1.70144
C         40.22151        24.60502         0.67930
C         39.23643        25.14704         0.06640
C         40.20996        27.32097         0.51771
C         39.03425        26.57597         0.11646
C         40.28626        28.70038         0.21707
C         39.05517        29.45824        -0.01261
C         40.33206        31.59195         0.19877
C         39.04507        30.82115        -0.01714
C         40.27652        32.98729        -0.45236
C         39.03857        33.75261        -0.01292
C         40.28196        35.90707        -0.01535
C         39.09898        35.21622         0.08023
C         40.30564        37.43105         0.18872
C         39.01969        38.05961        -0.46571
C         40.25635        40.25968        -0.81738
C         38.97539        39.58110        -0.35048
C         40.35591        41.84213        -0.63244
C         39.03362        42.51694        -0.22201
C         40.29116        44.52068         0.59339
C         39.05340        43.85110         0.43884
C         40.37669        45.91609         0.96670
C         39.16576        46.49243         1.64601
C         40.30692        48.62730         1.49038
C         39.32636        47.94450         1.78725
C         42.67475        24.61924         1.53037
C         41.41164        25.09967         1.15539
C         42.71558        27.28349         0.68435
C         41.40858        26.69614         1.19738
C         42.74581        28.61188         0.29245
C         41.53599        29.36683         0.18435
C         42.78010        31.49587        -0.66329
C         41.52940        30.77927        -0.27085
C         42.75596        33.00754        -0.55679
C         41.60733        33.70949        -0.31794
C         42.78361        35.98552        -0.44111
C         41.61647        35.18154         0.10604
C         42.77513        37.35825        -0.49076
C         41.55890        38.14408        -0.30832
C         42.78652        40.30456        -0.75837
C         41.53267        39.51325        -0.43576
C         42.78030        41.70227        -0.11081
C         41.59277        42.32866         0.11833
C         42.84201        44.54525         0.58358
C         41.55828        43.75552         0.54529
C         42.75241        46.01039         0.28327
C         41.50757        46.68545         0.71080
C         42.85784        48.73120         0.88112
C         41.44352        48.29460         0.60332
C         43.74648        25.26954         1.48882
C         45.10933        27.41752         1.39164
C         44.04720        26.50912         0.70991
C         45.22630        28.76899         0.68212
C         44.06233        29.18738        -0.20289
C         45.35266        31.50520        -0.34092
C         44.08303        30.72271        -0.51649
C         45.35709        33.00209        -0.58008
C         44.03903        33.72806        -0.78496
C         45.33226        35.94072        -0.87834
C         44.01084        35.23254        -0.82866
C         45.26370        37.31864        -0.24609
C         44.06493        38.10650        -0.83931
C         45.33477        40.32672        -0.65547
C         44.04291        39.54485        -0.26911
C         45.39408        41.68479         0.04775
C         44.09502        42.48509        -0.22014
C         45.35914        44.61140        -0.09338
C         44.20205        43.83263         0.52207
C         45.33950        45.99781        -0.01472
C         44.07620        46.75523         0.09626
C         43.88357        48.14090         0.53085
C         47.55767        27.46640         1.35155
C         46.49793        26.79250         1.35039
C         47.76622        28.83112         1.06756
C         46.56510        29.38353         0.29006
C         47.81596        31.64621         0.29040
C         46.46792        30.92551         0.51912
C         47.64556        33.16458         0.38479
C         46.57590        33.77288        -0.21060
C         47.83091        35.99660        -0.42110
C         46.65545        35.16369        -0.85238
C         47.86169        37.39116        -0.49927
C         46.58272        38.10316        -0.27379
C         47.88032        40.32296        -0.56311
C         46.61307        39.59112        -0.30436
C         47.84657        41.72194        -0.65084
C         46.60674        42.47500        -0.43416
C         47.75475        44.56437        -1.16970
C         46.54870        43.85429        -0.49473
C         47.66679        46.00574        -0.71533
C         46.60691        46.56018        -0.39681
C         50.13531        29.11389         1.80505
C         48.86751        29.61136         1.40558
C         49.86686        31.88215         1.76044
C         48.87000        31.07235         1.25499
C         50.04629        33.29561         1.37219
C         48.82159        33.97440         0.80981
C         50.32061        35.86725        -0.15311
C         48.98282        35.33640         0.21258
C         50.33525        37.35859        -0.64192
C         49.07736        38.13524        -0.55260
C         50.34496        40.29000        -0.70359
C         49.11522        39.57939        -0.60548
C         50.34498        41.72155        -0.66648
C         49.09539        42.43640        -0.74775
C         50.31882        44.39248        -0.78547
C         49.04496        43.86510        -0.86074
C         51.36479        29.43596         1.70662
C         52.60169        31.71181         1.45598
C         51.77720        30.73308         2.05421
C         52.49920        32.92512         1.20116
C         51.45978        33.94310         1.11254
C         52.66452        35.96001         0.03632
C         51.55713        35.19662         0.32837
C         52.63378        37.17368        -0.40826
C         51.62952        38.08096        -0.58173
C         52.78700        40.35542        -0.46254
C         51.65075        39.51685        -1.01551
C         52.72409        41.59488        -0.49960
C         51.60466        42.47688        -0.57127
C         51.46906        43.86006        -0.64231
O         42.21921        44.13352         1.83818
O         36.42630        38.66887        -1.52082
O         40.21891        40.01396        -2.23179
O         32.78190        40.09713        -0.86043
O         34.29084        35.37236         1.49604
O         44.81893        33.24745        -1.91698
O         48.57558        35.16807         1.62832
O         31.93001        30.78363         0.35205
O         38.71174        45.68169         2.75072
O         34.50330        28.88489         0.25901
O         50.75534        34.08816         2.36871
O         38.12486        42.45677        -1.35750
O         43.21237        46.45065        -1.05139
O         44.58735        35.74572        -2.09353
O         41.89340        30.93709        -1.70422
O         50.32172        36.22545        -1.56513
O         50.74408        31.42579         2.78738
O         37.90358        36.93984         1.48898
O         45.05078        30.86910        -1.60725
O         46.66632        38.89889         0.97493
O         36.65876        34.73108         2.01279
H         36.82909        35.54239         2.54088
O         45.39197        40.56257        -2.07052
H         45.15713        39.71224        -2.52337
O         44.98269        37.00779         1.13239
H         44.78327        37.86594         1.58656
O         35.55186        40.87088         1.98177
H         35.57131        41.53805         2.70000
O         37.26161        28.72174         1.39597
H         37.17927        29.66109         1.70826
O         37.24454        29.44297        -2.19951
H         36.66643        29.96222        -2.79703
O         45.60664        41.39278         1.44430
H         45.54659        42.24548         1.94820
O         41.83531        35.13167         1.55749
H         41.66134        36.04197         1.90063
O         35.06697        41.02372        -1.59745
H         35.28018        40.35256        -2.28208
O         33.96748        37.85345        -1.75054
H         33.30951        38.48517        -2.11892
O         35.09603        45.03467        -0.76598
H         34.15982        45.28887        -0.91077
O         46.06262        31.16756         1.88312
H         46.82791        31.01586         2.47768
O         40.46395        31.79894         1.62965
H         40.62560        30.92704         2.05033
O         41.13379        48.60102        -0.72507
H         41.84008        48.23842        -1.30499
O         44.47432        26.09389        -0.57128
H         44.53734        26.88947        -1.15930
O         48.28531        31.41341        -1.04645
H         47.91474        30.54578        -1.36409
O         39.05367        37.69960        -1.85596
H         39.47751        38.47948        -2.32882
O         44.23266        38.19651        -2.26712
H         43.44663        38.68223        -2.62090
O         46.98479        34.84884        -2.23247
H         46.12603        34.64060        -2.68248
O         32.45123        41.63485         2.47260
H         32.41516        42.57440         2.75765
O         51.75751        39.50761        -2.44209
H         52.52126        38.95086        -2.70144
O         33.92815        31.31672        -2.43064
H         33.86490        32.30786        -2.50627
O         46.89938        29.12353        -1.09929
H         46.05138        29.04045        -1.60832
O         40.37380        37.65623         1.62199
H         39.52543        37.33370         2.01721
O         44.62162        43.68673         1.90399
H         43.79926        43.63099         2.45264
O         31.70679        39.04698         2.52725
H         31.76565        39.90892         2.99943
O         44.24496        28.56926        -1.54510
H         43.62293        29.01629        -2.16209
O         43.91579        39.42825         1.16212
H         44.51945        40.08723         1.59621
O         37.52988        31.44085         1.67387
H         38.28725        31.88232         2.12274
O         40.03831        32.82226        -1.87559
H         40.74155        32.21793        -2.22866
O         42.82061        40.45184        -2.20185
H         41.85503        40.43029        -2.49698
O         35.04003        32.76567         1.42287
H         35.06225        33.62613         1.91002
O         31.34003        42.53497        -1.08046
H         31.05575        41.68937        -1.48240
O         44.10065        42.87740        -1.61185
H         43.94660        42.06405        -2.15772
O         47.56369        44.49978        -2.57592
H         46.67737        44.85725        -2.79328
O         41.32175        26.98380         2.61809
H         40.40894        26.79220         2.92085
O         40.61386        42.39911        -1.93998
H         40.28147        41.70114        -2.57434
O         34.05709        33.95379        -1.95522
H         34.93736        34.32727        -2.20978
O         36.59245        34.25250        -1.60173
H         37.51453        34.20515        -1.93871
O         44.71943        27.52935         2.75038
H         45.35860        28.10115         3.22238
