         404
 CSIRO Nanostructure Databank - Neutral Graphene Oxide Data Set
C          1.06633         3.58428         0.02951
C         -0.04412         4.11709        -0.82760
C          1.31922         6.03718        -1.54299
C          0.05949         5.26085        -1.51600
C          1.26410         7.55872        -1.66090
C          0.01282         8.34776        -1.69368
C          1.24456        10.48552        -1.40293
C          0.02413         9.69595        -1.54368
C          1.23657        11.91986        -1.36341
C          0.02626        12.67256        -1.45485
C          1.23424        14.79085        -1.22176
C          0.02885        14.04301        -1.38266
C          1.21558        16.22913        -1.13644
C         -0.00163        16.96365        -1.19686
C          1.17680        19.07736        -0.94003
C         -0.02439        18.33828        -1.10731
C          1.17628        20.52509        -0.81839
C         -0.01457        21.21743        -0.39520
C          1.06211        23.42362        -0.57635
C         -0.04076        22.55652        -0.14615
C          1.22342        24.81590        -0.09617
C          0.13364        25.44733         0.54900
C          1.38090        27.51842         0.83922
C          0.23622        26.74691         1.04499
C          1.48556        28.85596         1.35132
C          0.37204        29.50684         1.94147
C          1.68831        31.50832         2.38799
C          0.46421        30.79626         2.42214
C          1.73460        32.91762         2.78514
C          0.57082        33.60196         3.23706
C          1.76302        35.72352         3.31949
C          0.58845        34.95633         3.51119
C          1.79949        37.12994         3.58864
C          3.50577         3.42199         0.27095
C          2.44776         4.10305        -0.34353
C          3.75719         6.10284        -1.05866
C          2.55060         5.36199        -1.02252
C          3.71756         7.57740        -0.94966
C          2.44958         8.32361        -1.15979
C          3.69865        10.49768        -1.23522
C          2.47151         9.80228        -1.32429
C          3.68034        11.90047        -1.15624
C          2.46337        12.63500        -1.20459
C          3.68330        14.83434        -1.03770
C          2.47038        14.08637        -1.14027
C          3.69355        16.24432        -0.97764
C          2.43551        16.95633        -0.98821
C          3.63490        19.13424        -0.65021
C          2.39617        18.37111        -0.88330
C          3.64315        20.57278        -0.95056
C          2.37831        21.23928        -0.97039
C          3.60108        23.45718        -0.99671
C          2.34047        22.70754        -1.03601
C          3.62503        24.82837        -0.74226
C          2.44041        25.50299        -0.27832
C          3.82297        27.59935         0.19580
C          2.45893        27.00508        -0.08761
C          3.90908        28.85340         0.78437
C          2.73457        29.54459         1.30601
C          4.14156        31.52376         1.93300
C          2.82950        30.84527         1.86372
C          4.18562        32.98877         2.30764
C          2.91916        33.66549         2.63310
C          4.14251        35.81894         2.64910
C          2.94083        35.06686         2.86244
C          4.14797        37.22087         2.91772
C          2.94943        37.84859         3.40354
C          6.00068         3.49963         0.81275
C          4.88362         3.65592        -0.00482
C          6.19224         6.19119        -0.46554
C          5.02992         5.52038        -0.92332
C          6.15253         7.64897        -0.55215
C          4.99301         8.30321        -0.92685
C          6.20598        10.47338        -0.87833
C          5.01248         9.73078        -1.40719
C          6.21506        11.92115        -1.21650
C          4.94325        12.63605        -0.92432
C          6.25391        14.85038        -1.11780
C          4.97190        14.12844        -0.88868
C          6.18968        16.29050        -1.06245
C          4.94805        16.94826        -0.93040
C          6.17495        19.19032        -1.01593
C          4.96552        18.40375        -0.69914
C          6.12730        20.59508        -1.18835
C          4.85383        21.25307        -1.16640
C          6.07258        23.45920        -1.64961
C          4.79108        22.70326        -1.43616
C          6.03035        24.89629        -1.29652
C          4.88972        25.56170        -0.87230
C          6.15925        27.66893        -0.56945
C          4.97252        26.95706        -0.42213
C          6.38917        28.94348         0.12449
C          5.21662        29.53943         0.88422
C          6.39703        31.75026         0.87933
C          5.27878        30.98235         1.17322
C          6.44378        33.16870         1.24356
C          5.34390        33.78389         1.86590
C          6.47527        35.96607         1.86565
C          5.31819        35.19091         2.12303
C          6.48343        37.37281         2.17083
C          5.31498        37.97294         2.69417
C          8.36271         3.51034         1.25111
C          7.27123         4.13673         0.56355
C          8.54875         6.28951         0.14939
C          7.35031         5.47572        -0.03060
C          8.46949         7.73278         0.20213
C          7.33282         8.41202        -0.19787
C          8.40998        10.76178         0.18898
C          7.28417         9.86303        -0.31612
C          8.66192        11.88665        -0.79208
C          7.49552        12.66729        -1.30553
C          8.68628        14.96298        -1.22481
C          7.47106        14.17780        -1.24766
C          8.64564        16.37299        -1.02357
C          7.40571        17.05883        -1.03347
C          8.62877        19.22312        -1.18874
C          7.39862        18.48585        -1.07245
C          8.61325        20.60475        -1.42665
C          7.36903        21.33431        -1.45885
C          8.60074        23.48491        -2.03348
C          7.36218        22.72401        -1.66867
C          8.52725        24.97388        -1.89400
C          7.24262        25.63716        -1.63644
C          8.57349        27.81536        -1.31989
C          7.26973        27.13416        -1.36160
C          8.50861        29.27550        -1.17938
C          7.44333        29.86813        -0.34615
C          8.56454        32.07995        -0.39357
C          7.46798        31.18718         0.05840
C          8.72165        33.41093         0.24781
C          7.60268        33.96429         0.94327
C          8.79383        36.12751         1.04717
C          7.62904        35.34705         1.29935
C          8.81058        37.53058         1.38510
C          7.65284        38.12715         1.93344
C         10.87912         3.47443         1.72397
C          9.72719         3.73647         0.97780
C         11.02384         6.37867         0.66283
C          9.81925         5.72019         0.22120
C         10.98003         7.76786         0.64126
C          9.68942         8.48211         0.57487
C         11.00964        10.67007         0.32740
C          9.69764         9.98707         0.48736
C         11.10446        11.95724        -0.24008
C          9.93155        12.31525        -1.00931
C         11.14589        14.97406        -0.78696
C          9.98237        14.40715        -1.35238
C         11.09829        16.40031        -0.67008
C          9.87618        17.10080        -0.90311
C         11.10279        19.23237        -0.88657
C          9.87874        18.51515        -1.01423
C         11.12763        20.63765        -1.10492
C          9.94255        21.20982        -1.86892
C         11.23258        23.43800        -1.73840
C          9.94074        22.73572        -2.04249
C         11.41382        24.80780        -2.07338
C          9.55510        25.82817        -2.25207
C         11.04090        27.86293        -1.71192
C          9.71682        27.19812        -1.80037
C         11.05201        29.27525        -1.53253
C          9.77531        30.03313        -1.48771
C         11.05943        32.16890        -1.00744
C          9.77242        31.48179        -1.11210
C         10.98376        33.67098        -0.90315
C          9.86667        34.16999         0.00280
C         11.12010        36.30401         0.25860
C          9.92988        35.53165         0.44249
C         11.14849        37.68545         0.63584
C          9.97964        38.28612         1.15806
C         13.29187         3.57386         1.99030
C         12.12648         4.21060         1.58154
C         13.32819         6.36967         1.48560
C         12.18487         5.63901         1.17934
C         13.44630         7.78998         1.12236
C         12.20516         8.54491         0.73575
C         13.36504        10.77952         0.84908
C         12.18121        10.02289         0.72454
C         13.39479        12.15498         0.54330
C         12.27691        12.76977        -0.09911
C         13.50806        14.94633        -0.14337
C         12.31231        14.21363        -0.39014
C         13.52640        16.39028        -0.32628
C         12.30719        17.11551        -0.47837
C         13.54763        19.23848        -0.49081
C         12.31587        18.53399        -0.57885
C         13.54994        20.67088        -0.57090
C         12.30634        21.36627        -0.87418
C         13.47397        23.58649        -0.71730
C         12.28966        22.79034        -1.08942
C         13.54509        25.04196        -1.02109
C         12.37923        25.68401        -1.53296
C         13.48870        27.86622        -1.29597
C         12.28511        27.13766        -1.57120
C         13.47828        29.28746        -1.32896
C         12.26485        30.00797        -1.37713
C         13.48751        32.21057        -1.13352
C         12.25742        31.47515        -1.19542
C         13.50830        33.60298        -0.81267
C         12.30624        34.30552        -0.58192
C         13.54519        36.39396        -0.19035
C         12.32281        35.66729        -0.18792
C         13.55198        37.80048         0.11252
C         12.35283        38.42430         0.50297
C         15.85863         3.65116         2.32046
C         14.53698         4.28271         2.31638
C         15.81542         6.50995         2.05087
C         14.51807         5.79731         2.14316
C         15.82188         7.92004         1.94036
C         14.53384         8.61063         1.73679
C         15.78278        10.80822         1.62251
C         14.50522        10.10873         1.51576
C         15.88897        12.14742         0.96981
C         14.60015        12.97253         0.99926
C         15.96381        14.92725         0.12045
C         14.71701        14.29423         0.27330
C         15.99796        16.30408        -0.50481
C         14.73849        17.10094        -0.32551
C         16.03565        19.24014        -0.38690
C         14.77403        18.51803        -0.39473
C         16.03971        20.67599        -0.35625
C         14.77736        21.35258        -0.46984
C         16.02946        23.53415        -0.62240
C         14.73967        22.82291        -0.42797
C         16.00116        25.03230        -0.69192
C         14.72235        25.76430        -0.83807
C         15.95945        27.89949        -0.79684
C         14.74323        27.18441        -1.00462
C         16.00171        29.32052        -0.96539
C         14.77053        30.00120        -1.40035
C         16.01903        32.21986        -1.01324
C         14.76578        31.53032        -1.35482
C         16.00343        33.63868        -0.88179
C         14.75859        34.32075        -0.74489
C         15.98866        36.45399        -0.54499
C         14.76144        35.72106        -0.49779
C         15.98087        37.88483        -0.30513
C         14.77363        38.52031         0.02835
C         18.30655         3.71569         2.46080
C         17.02960         4.38804         2.37312
C         18.26885         6.58280         2.22338
C         17.03276         5.84225         2.26289
C         18.29331         8.01706         2.09468
C         16.99865         8.66829         2.09960
C         18.73790        11.03077         1.58477
C         16.83592        10.10215         2.15013
C         18.54256        12.19018         0.82867
C         17.20110        12.80859         0.63314
C         18.44146        14.82863        -0.10664
C         17.19834        14.23948         0.26123
C         18.50408        16.31131        -0.15973
C         17.23667        17.08170        -0.14260
C         18.50970        19.22780        -0.32305
C         17.25656        18.54641        -0.36467
C         18.53159        20.65739        -0.13845
C         17.27616        21.38088        -0.13154
C         18.19183        23.66923         0.43507
C         17.21458        22.83357        -0.07581
C         18.31072        25.08047         0.17377
C         17.19489        25.77760        -0.28680
C         18.35286        27.90660        -0.12018
C         17.19013        27.21358        -0.41546
C         18.34692        29.37357        -0.17379
C         17.16304        30.06459        -0.71193
C         18.46682        32.22276        -0.75508
C         17.21269        31.49898        -0.84073
C         18.48250        33.64375        -0.90385
C         17.23016        34.36339        -0.89025
C         18.41939        36.56638        -1.03305
C         17.19355        35.78158        -0.81916
C         18.42397        37.99093        -0.65206
C         17.20053        38.60955        -0.33766
C         19.47351         4.41548         2.43399
C         20.71392         6.53658         2.18967
C         19.49445         5.85073         2.29346
C         20.73488         7.90384         1.92505
C         19.56246         8.67644         1.84257
C         20.76235        10.50579         0.47797
C         19.72028        10.05931         1.33150
C         20.78538        11.81847        -0.00165
C         19.67040        12.69007         0.13018
C         20.87387        14.82924        -0.46325
C         19.64131        14.10149        -0.22856
C         20.93650        16.17541        -0.62983
C         19.68142        16.99313        -0.81287
C         20.94475        19.14417        -0.51908
C         19.73099        18.47669        -0.47419
C         20.99526        20.53058        -0.32031
C         19.84074        21.27591        -0.09394
C         20.89350        23.61255        -0.25445
C         20.03449        22.67869         0.25974
C         20.77801        25.02159         0.04644
C         19.61387        25.72489         0.26794
C         20.84563        27.94165        -0.02103
C         19.59514        27.23574         0.46899
C         20.88071        29.25844        -0.27763
C         19.67489        30.10747        -0.17544
C         20.90584        32.22799        -0.67129
C         19.69739        31.52880        -0.59587
C         20.91970        33.61282        -0.84991
C         19.72775        34.33781        -0.93554
C         20.94455        36.59885        -0.72280
C         19.76333        35.81688        -1.09129
C         20.87815        37.96838        -0.59725
C         19.65133        38.67178        -0.58913
O          8.73033        32.21611        -1.85330
O         16.22941        24.17164        -1.92199
O         14.09142         9.48854         2.81089
O         16.41719        12.00616        -0.39082
O         14.30592         5.20901         3.46186
O          9.26332        23.06964        -3.29105
O          9.56661         9.33687         1.80016
O         19.08597        36.28477        -2.30444
O         17.89798        10.83113         2.67660
O         13.92768        23.33862         0.68122
O         10.58515        25.33375        -3.05661
O          6.81875        12.15588        -2.54487
O          1.38030        23.26296        -1.99608
O          6.92693        26.63795        -2.68791
O         18.91026        29.97200         1.08188
O         14.87961        30.78972        -2.62962
O          1.53412         6.72544        -2.83018
O         19.16516        23.11827         1.27748
O         13.21216         8.08193        -0.28636
O          4.34305        18.78391         0.58856
O          6.28085        28.80487         1.58792
O          5.15870         4.17586        -1.29373
O          4.52791        31.94140         3.29241
O          9.97091         4.41643        -0.24102
O          4.99630        13.32320         0.37050
O          2.82543         7.96656         0.22232
O         17.95853        16.81252         1.11129
O          8.79029        29.81299        -2.53424
O          5.21091        23.09889        -2.79936
O         10.12941        13.21642        -2.06040
O         19.52122        27.44849         1.91133
H         19.37504        28.41889         2.03945
O          2.10607        27.55989        -1.42061
H          1.32581        27.06165        -1.74639
O          7.96689        11.35883         1.43076
H          8.13433        10.69678         2.13987
O         19.37522        16.93833        -2.24699
H         20.13212        17.32659        -2.73354
O         10.15151        20.66566        -3.21483
H          9.66204        21.26280        -3.82935
O         16.12698        16.10050        -1.95304
H         15.36418        15.56078        -2.25045
O         14.37884        13.28507         2.40610
H         13.53972        13.78528         2.48357
O          1.05250         2.15092         0.02300
H          1.25133         1.84818        -0.88645
O          5.19671         9.65362        -2.86899
H          5.72844        10.43365        -3.14838
O         10.62902        34.15293        -2.25115
H          9.81197        33.65932        -2.51015
H          0.85744         3.88878         1.09576
H         -0.98062         3.54008        -0.84438
H         -0.77702         5.62554        -2.12962
H         -0.94034         7.82635        -1.86369
H         -0.93826        10.22582        -1.57557
H         -0.93280        12.15390        -1.58412
H         -0.93275        14.56721        -1.45538
H         -0.95591        16.43637        -1.32325
H         -0.98548        18.86487        -1.17996
H         -0.89044        20.61462        -0.11655
H         -0.91489        22.99122         0.35778
H         -0.80359        24.89829         0.70340
H         -0.60808        27.14457         1.62372
H         -0.60106        29.00137         1.98802
H         -0.43917        31.26437         2.83285
H         -0.36837        33.05408         3.38722
H         -0.32296        35.45305         3.87392
H          0.88592        37.62371         3.95033
H          3.24413         2.67313         1.03496
H          2.97052        38.92801         3.61265
H          5.92571         2.84629         1.69574
H          5.31518        39.05105         2.91287
H          8.10666         2.76433         2.01965
H          7.66167        39.20037         2.17438
H         10.83595         2.72458         2.52855
H          9.99439        39.35227         1.42802
H         13.25861         2.49022         2.18300
H         12.35713        39.49412         0.75878
H         15.91627         2.55330         2.26487
H         14.77387        39.59964         0.24117
H         18.31539         2.62017         2.55596
H         17.18957        39.68109        -0.08746
H         20.43692         3.88912         2.50273
H         21.65812         5.97758         2.25746
H         21.70591         8.39489         1.77088
H         21.59268         9.83312         0.21911
H         21.66217        12.15070        -0.57531
H         21.81401        14.25799        -0.43485
H         21.92125        16.64459        -0.77349
H         21.88450        18.59908        -0.67882
H         21.97032        21.03729        -0.29613
H         21.69580        23.30233        -0.94017
H         21.71913        25.58212        -0.05584
H         21.78720        27.38172        -0.10265
H         21.82085        29.71860        -0.61585
H         21.86134        31.69919        -0.55686
H         21.88722        34.12957        -0.90110
H         21.89540        36.08615        -0.52127
H         21.80128        38.52990        -0.39282
H         19.65467        39.75259        -0.38783
