         404
 CSIRO Nanostructure Databank - Neutral Graphene Oxide Data Set
C          1.66573         1.93526        -1.32535
C          1.62013         3.33160        -1.35002
C          2.87333         1.26552        -1.15942
C          2.78692         4.10257        -1.14403
C          1.67076         6.25381        -1.79332
C          1.68016         7.65195        -1.95691
C          2.75778         5.55911        -1.27107
C          2.82684         8.43780        -1.71970
C          1.67566        10.60422        -2.21923
C          1.67866        11.99776        -2.29063
C          2.83428         9.88513        -1.88039
C          2.84815        12.74072        -2.07408
C          1.61078        14.93885        -1.99919
C          1.60072        16.31934        -1.92139
C          2.83210        14.20960        -2.03855
C          2.81113        17.05258        -1.86530
C          2.82996        18.48123        -1.76792
C          4.07317         1.99197        -0.95639
C          4.00024         3.41293        -0.86937
C          5.33295         1.29693        -0.94859
C          5.23694         4.14809        -0.56382
C          3.94096         6.36340        -0.91020
C          4.01643         7.78564        -1.29425
C          5.24148         5.64638        -0.60750
C          5.23680         8.49018        -1.14678
C          4.04759        10.61067        -1.66163
C          4.06217        12.03295        -1.81254
C          5.25556         9.91525        -1.33724
C          5.29657        12.74330        -1.66855
C          4.04132        14.91959        -1.98436
C          4.04704        16.34194        -1.90372
C          5.34073        14.17486        -2.16049
C          5.27608        17.07405        -1.84148
C          4.01152        19.17160        -1.67409
C          5.27521        18.49022        -1.68457
C          6.55996         1.95913        -0.94038
C          6.54340         3.41801        -0.67586
C          7.81923         1.30663        -1.00125
C          7.72989         4.21006        -1.10356
C          6.50888         6.37262        -0.82022
C          6.47439         7.79952        -0.90747
C          7.72249         5.68346        -0.92220
C          7.70455         8.52171        -0.87166
C          6.46818        10.63841        -1.17353
C          6.45777        12.06283        -1.32305
C          7.70295         9.94764        -0.93840
C          7.70253        12.80550        -1.01588
C          6.54230        14.97929        -1.73868
C          6.52101        16.35344        -1.78556
C          7.76149        14.28949        -1.27526
C          7.78744        17.12683        -1.79433
C          6.48212        19.20055        -1.45768
C          7.74511        18.56422        -1.44167
C          9.04961         2.00954        -1.02983
C          9.01216         3.47154        -1.31443
C         10.27957         1.37132        -0.83546
C         10.27997         4.26521        -1.26783
C          8.96237         6.38976        -0.88611
C          8.94268         7.81251        -0.76879
C         10.20841         5.69628        -0.89985
C         10.16988         8.52008        -0.59597
C          8.94460        10.65882        -0.82961
C          8.97423        12.07958        -0.89983
C         10.16582         9.95545        -0.61138
C         10.17755        12.80224        -0.77735
C          9.07910        14.93240        -1.39264
C          9.11029        16.38719        -1.68298
C         10.21588        14.22872        -1.04960
C         10.27272        17.15779        -1.22421
C          8.93212        19.22745        -1.11583
C         10.19039        18.54581        -0.98369
C         11.54501         2.04913        -0.86976
C         11.57481         3.52537        -1.09056
C         12.74302         1.40503        -0.68779
C         12.72860         4.26673        -0.52711
C         11.39530         6.37514        -0.54539
C         11.37417         7.80051        -0.38420
C         12.60579         5.64475        -0.28049
C         12.57409         8.51979        -0.04823
C         11.37655        10.67456        -0.41224
C         11.39673        12.10457        -0.49124
C         12.56648         9.94442        -0.08286
C         12.61739        12.82561        -0.31361
C         11.53314        14.90646        -1.06696
C         11.54379        16.46056        -1.09258
C         12.69412        14.23111        -0.47334
C         12.68805        17.15091        -0.50229
C         11.37123        19.24061        -0.58783
C         12.59506        18.57615        -0.32944
C         14.04400         2.14404        -0.87927
C         13.94817         3.56416        -0.35884
C         15.23483         1.42227        -0.31749
C         15.13015         4.22591         0.05011
C         13.72803         6.36262         0.33857
C         13.75726         7.83531         0.31808
C         15.04201         5.63450         0.48695
C         14.91087         8.53405         0.76024
C         13.75786        10.63596         0.24051
C         13.83924        12.07460        -0.04008
C         14.88099         9.95482         0.72885
C         15.07740        12.85794         0.47015
C         13.84637        14.98354        -0.09831
C         13.83366        16.43253        -0.10602
C         14.97129        14.32936         0.49291
C         14.97819        17.15963         0.36733
C         13.75234        19.28246         0.08296
C         14.95172        18.60565         0.39292
C         16.38210         2.10652         0.06529
C         16.36266         3.55553         0.12831
C         17.55009         1.39957         0.51599
C         17.61985         4.28984         0.36611
C         16.27746         6.46655         0.56189
C         16.15411         7.84928         1.07523
C         17.60358         5.77434         0.60204
C         17.28830         8.49610         1.56292
C         15.95089        10.70113         1.41005
C         16.02919        12.15423         1.31030
C         17.13233         9.91581         1.96796
C         17.12511        12.88847         1.95546
C         16.06477        15.05455         0.96472
C         16.11834        16.47407         0.83702
C         17.16998        14.37767         1.67918
C         17.32132        17.19108         1.20389
C         16.12535        19.30692         0.75252
C         17.32088        18.63399         1.10202
C         18.70350         2.04374         0.95972
C         18.82766         3.51589         0.81922
C         19.83753         1.34307         1.41638
C         19.89296         4.23230         1.56015
C         18.69988         6.41461         1.36639
C         18.56112         7.80683         1.76046
C         19.79637         5.64546         1.77616
C         19.67445         8.47913         2.33188
C         18.33195        10.68922         2.43600
C         18.39966        12.16682         2.26164
C         19.58411         9.92198         2.69357
C         19.58434        12.85478         2.44755
C         18.53345        15.00491         1.49835
C         18.49030        16.51461         1.57928
C         19.57332        14.35339         2.38682
C         19.70897        17.22232         1.78949
C         18.52999        19.33210         1.29450
C         19.73483        18.65128         1.57876
C         21.01329         2.02818         1.79960
C         21.00012         3.46996         1.97943
C         22.21639         1.31902         1.98101
C         22.18738         4.10717         2.49217
C         20.76793         6.27658         2.74910
C         20.90301         7.78625         2.57829
C         22.10205         5.53839         2.87792
C         22.11749         8.46652         2.80752
C         20.84268        10.70755         2.92240
C         20.85198        12.18006         2.68355
C         22.12208         9.94540         3.02950
C         22.06660        12.87014         2.70920
C         20.83154        15.12801         2.60204
C         20.90772        16.53828         2.12541
C         22.09685        14.35663         2.82763
C         22.14177        17.22047         2.08251
C         20.97333        19.33236         1.61185
C         22.17979        18.63487         1.79181
C         23.43292         1.99548         2.21327
C         23.39131         3.41025         2.52447
C         24.66565         1.31343         2.12935
C         24.68777         4.08416         2.76092
C         23.39128         6.31549         3.00011
C         23.37788         7.78153         2.80571
C         24.70418         5.59543         2.89376
C         24.60848         8.43913         2.62936
C         23.40022        10.71435         2.88650
C         23.33670        12.18027         2.60106
C         24.64695         9.92681         2.65844
C         24.51628        12.86095         2.28833
C         23.39705        15.08848         2.65537
C         23.38324        16.52827         2.26869
C         24.60353        14.29881         2.30322
C         24.58642        17.19443         2.09534
C         23.43580        19.30107         1.69579
C         24.63960        18.60695         1.81882
C         25.91037         2.00048         2.11648
C         25.92077         3.41868         2.30785
C         27.13147         1.32323         1.89734
C         27.10983         4.16093         2.15800
C         25.89804         6.33983         2.44853
C         25.83765         7.74026         2.42145
C         27.10752         5.60505         2.17240
C         27.16210         8.48851         2.33004
C         25.76796        10.60504         1.94953
C         25.71500        12.11437         1.81256
C         27.05953         9.93419         1.88341
C         27.00539        12.79484         1.62488
C         25.78059        14.96705         2.03444
C         25.84705        16.43455         2.23437
C         26.97815        14.26503         1.54415
C         27.14818        17.16684         2.05782
C         25.91101        19.26728         1.63472
C         27.12540        18.60939         1.71329
C         28.35322         2.02144         1.81614
C         28.33756         3.47026         1.89182
C         29.57196         1.33668         1.58465
C         29.52647         4.19978         1.71469
C         28.27959         6.29484         1.78885
C         28.12741         7.74575         1.40702
C         29.50284         5.61727         1.58840
C         29.43145         8.48235         1.23577
C         28.18435        10.62746         1.47560
C         28.17673        12.08534         1.39107
C         29.40933         9.88724         1.19715
C         29.45672        12.77858         1.24581
C         28.31844        15.01403         1.43974
C         28.37008        16.41635         1.77655
C         29.56471        14.21830         1.41068
C         29.66905        17.13337         1.94445
C         28.37595        19.23207         1.39272
C         29.59094        18.55377         1.40988
C         30.80508         2.01565         1.47992
C         30.80964         3.48196         1.67333
C         32.00613         1.36905         1.18470
C         32.05479         4.25913         1.26578
C         30.69300         6.33863         1.15732
C         30.62065         7.76561         0.96443
C         31.90142         5.67593         0.89809
C         31.77978         8.47159         0.51950
C         30.57883        10.59916         0.81919
C         30.59471        12.03488         0.94019
C         31.72931         9.87843         0.41965
C         31.91445        12.68724         0.91966
C         30.78290        14.89916         1.42564
C         30.85321        16.34656         1.42928
C         32.04415        14.15448         1.24453
C         32.02384        17.02557         1.15243
C         30.81245        19.17618         1.04364
C         32.02248        18.46731         0.98183
C         33.22451         2.06694         0.87576
C         33.22844         3.51587         0.77936
C         34.34422         1.34547         0.47431
C         34.27460         4.21584         0.18785
C         33.02335         6.35217         0.30708
C         32.96791         7.75911         0.12997
C         34.20103         5.63135        -0.07047
C         34.12066         8.44932        -0.36084
C         32.87228        10.58542        -0.17091
C         32.96679        12.09379         0.06764
C         34.11032         9.87678        -0.45939
C         34.25995        12.75858        -0.05702
C         33.25620        14.85495         0.78457
C         33.35342        16.30557         1.15673
C         34.35122        14.16261         0.26353
C         34.47046        17.01767         0.44769
C         33.23718        19.13137         0.62173
C         34.42488        18.45084         0.35261
C         35.59658         2.00200         0.12948
C         35.55634         3.54773        -0.07130
C         36.63727         1.27769        -0.59266
C         36.51082         4.16279        -1.00619
C         35.30693         6.30929        -0.67173
C         35.27398         7.71877        -0.75017
C         36.41444         5.56766        -1.28132
C         36.46129         8.45108        -1.21730
C         35.25975        10.61600        -0.82604
C         35.32317        12.05270        -0.63761
C         36.40918         9.92190        -1.29799
C         36.51802        12.75932        -0.99997
C         35.57015        14.86716        -0.09240
C         35.59510        16.29808         0.05350
C         36.61935        14.17222        -0.74745
C         36.83276        17.03841        -0.25737
C         35.61839        19.16346        -0.06668
C         36.78136        18.50865        -0.33068
C         37.61538         1.94028        -1.29842
C         37.54162         3.37622        -1.54970
C         38.68353         1.17901        -1.90883
C         38.41872         3.96293        -2.51128
C         37.33823         6.19004        -2.16059
C         37.50755         7.68336        -2.06794
C         38.25907         5.34027        -2.88169
C         38.34184         8.56515        -2.93764
C         37.51528        10.63460        -1.80247
C         37.55022        12.06765        -1.67600
C         38.49500         9.95585        -2.61389
C         38.62246        12.81177        -2.26533
C         37.74015        14.88393        -1.30947
C         37.94203        16.31197        -0.98523
C         38.65071        14.24225        -2.13211
C         38.90581        17.11132        -1.78077
C         38.09357        19.21756        -0.57931
C         38.97728        18.50830        -1.58878
C         39.55737         1.76298        -2.76669
C         39.41619         3.14954        -3.14137
C         40.21362         3.66946        -4.16620
C         39.00648         5.75526        -4.02142
C         39.01579         8.12106        -4.08661
C         39.96500         4.95892        -4.64258
C         39.98906         8.89217        -4.74780
C         39.50792        10.73791        -3.25836
C         39.64167        12.14394        -2.97288
C         40.29319        10.15908        -4.28306
C         40.81498        12.90201        -3.36970
C         39.55760        15.01367        -3.06827
C         39.73424        16.48005        -2.72985
C         40.83720        14.25447        -3.31764
C         40.63562        17.25543        -3.47288
C         39.90008        19.25684        -2.33010
C         40.72822        18.63194        -3.26355
O         32.46310        11.56798        -1.19676
O         14.17267         5.80638         1.64491
O         38.02411        16.54137         0.46438
O         31.75533         3.96750         2.67960
O         25.36062        11.21984         0.68006
O         27.44233        14.76905         0.24153
O         22.86401        14.81549         3.99361
O         24.36119        10.45943         3.99329
O          5.98871         3.71195         0.63871
O         24.92037         4.74260         4.06044
O         14.97599        12.35800        -0.92137
O          8.58197        16.81620        -2.99399
O         16.78803        13.90345         2.99567
O          4.42682         6.17930         0.48154
O         18.65133        10.21440         3.79489
O         18.69203         3.93547        -0.58745
O         26.62535        16.83205         3.42426
O         19.81434        14.98360         3.66723
O         21.40327        10.34879         4.24069
O          7.52168        13.75791         0.10367
O         11.84732        15.63254        -2.28297
O         36.13074         2.94363         1.12301
O         17.14176         6.45417        -0.62656
O         38.68039         6.92514        -4.71182
O         32.34652        13.10809         2.25140
O          8.15430         3.81894        -2.45947
O         11.16485         3.98975        -2.41515
O         22.66635         5.85899         4.19244
O         16.00273        10.20226         2.83120
O         37.73228         7.99776        -0.65089
O         37.88324        20.57819        -0.95445
H         37.44349        20.59470        -1.82873
O         27.48867         7.74380         0.09120
H         28.11962         7.36099        -0.55358
O         14.26547         2.23561        -2.33758
H         15.09046         2.74641        -2.48135
O         18.95336        14.66936         0.13505
H         18.36809        15.14578        -0.49191
O         20.10615         6.12442         4.04140
H         20.79277         6.29757         4.72709
O         29.90583        17.25936         3.39195
H         30.81175        17.61719         3.51167
O          5.51379        14.01813        -3.62657
H          5.53052        14.91820        -4.01787
O         33.74139        16.32776         2.58942
H         34.56474        15.80106         2.67926
O         27.73764         8.48190         3.65947
H         27.06837         8.81395         4.29438
O         38.84093        15.02227        -4.35782
H         38.72708        14.08736        -4.63287
H          0.73936         1.36278        -1.47232
H          0.65461         3.82740        -1.51658
H          2.90802         0.16762        -1.19999
H          0.75805         5.71303        -2.07958
H          0.75958         8.12750        -2.32066
H          0.73153        10.07479        -2.40515
H          0.73515        12.50850        -2.52578
H          0.65221        14.40311        -2.02200
H          0.64375        16.86021        -1.89250
H          1.87192        19.02117        -1.75161
H          5.31438         0.20251        -1.06357
H          4.00491        20.26672        -1.57379
H          7.84204         0.20639        -0.97261
H          6.42937        20.28164        -1.25957
H         10.28468         0.28616        -0.65002
H          8.89757        20.30351        -0.89032
H         12.76587         0.32462        -0.47772
H         11.32105        20.32999        -0.44621
H         15.25170         0.32263        -0.35797
H         13.71372        20.37828         0.16640
H         17.51005         0.30044         0.54450
H         16.11943        20.40674         0.72923
H         19.83648         0.24317         1.40432
H         18.54924        20.42365         1.15869
H         22.22851         0.23249         1.81090
H         20.99539        20.41850         1.43912
H         24.65826         0.22692         1.95798
H         23.44812        20.38207         1.49176
H         27.12737         0.22870         1.78962
H         25.89778        20.33674         1.37383
H         29.55305         0.24267         1.46894
H         28.36499        20.29253         1.09401
H         32.01329         0.27126         1.10825
H         30.80354        20.24222         0.76815
H         34.27345         0.25411         0.35297
H         33.21256        20.22479         0.49993
H         36.62875         0.17752        -0.57276
H         35.58891        20.26269        -0.11359
H         38.76698         0.11113        -1.66158
H         38.64540        19.23799         0.40206
H         40.36368         1.17835        -3.23258
H         40.97401         3.03661        -4.64415
H         40.49439         5.34581        -5.52259
H         40.50674         8.46774        -5.61726
H         41.06959        10.75178        -4.78445
H         41.72730        12.35326        -3.64631
H         41.75468        14.80187        -3.57786
H         41.26545        16.77979        -4.23733
H         39.95627        20.34340        -2.17448
H         41.44323        19.22782        -3.84753
