         424
 CSIRO Nanostructure Databank - Neutral Graphene Oxide Data Set
C          1.22923         3.59778        -1.13465
C          0.01659         4.25075        -0.96225
C          1.15606         6.39506        -0.64358
C         -0.02727         5.62873        -0.71890
C          1.13382         7.81683        -0.34869
C         -0.06951         8.53380        -0.13216
C          1.14083        10.61231         0.34349
C         -0.07100         9.88197         0.17342
C          1.14975        12.04374         0.56630
C         -0.08245        12.79517         0.66688
C          1.13012        14.95041         0.31682
C         -0.10859        14.14891         0.61432
C          1.07745        16.33450         0.94795
C         -0.02575        17.23815         0.54639
C          1.07848        19.15249         1.72804
C         -0.01446        18.54266         0.86157
C          1.13602        20.65355         1.57154
C         -0.05890        21.38153         1.63342
C          1.12792        23.47179         1.24926
C         -0.06996        22.76113         1.45713
C          1.13392        24.90093         1.00283
C         -0.06995        25.61468         0.81144
C          1.15387        27.68762         0.44130
C         -0.05851        26.96467         0.51103
C          1.16744        29.08328         0.07691
C          0.07264        29.69975        -0.50410
C          1.29228        31.79919        -0.87005
C          0.11543        31.04153        -0.93165
C          1.34006        33.15770        -1.38366
C          0.22134        33.76628        -2.00368
C          1.40821        35.87605        -2.21032
C          0.26140        35.08150        -2.43492
C          1.49389        37.22204        -2.74507
C          3.69106         3.67331        -1.25255
C          2.44842         4.32582        -1.08022
C          3.63502         6.47865        -0.80180
C          2.40765         5.73878        -0.83757
C          3.60881         7.86871        -0.50412
C          2.36290         8.53128        -0.23361
C          3.63339        10.54197         0.47502
C          2.35222         9.89732         0.16609
C          3.64101        12.04559         0.79132
C          2.36632        12.77389         0.65408
C          3.61835        14.90230         0.82435
C          2.39128        14.18692         0.66219
C          3.63864        16.30642         1.05681
C          2.38208        17.01691         1.32360
C          3.59928        19.17512         1.36887
C          2.40151        18.47779         1.44266
C          3.61854        20.62588         1.41542
C          2.36278        21.34043         1.42785
C          3.60391        23.47103         1.20891
C          2.36191        22.76073         1.28983
C          3.61046        24.88562         1.05115
C          2.37062        25.60177         0.91849
C          3.63407        27.72438         0.65263
C          2.38189        27.00788         0.68996
C          3.66088        29.13633         0.48222
C          2.36828        29.91401         0.45150
C          3.68467        31.92134        -0.27482
C          2.47532        31.22001        -0.30459
C          3.72632        33.30637        -0.67050
C          2.52580        33.91789        -1.20934
C          3.67601        36.11424        -1.21068
C          2.52061        35.28859        -1.56814
C          3.72672        37.56560        -1.76315
C          2.60437        37.98929        -2.61454
C          6.15318         3.73837        -1.40783
C          4.90847         4.39037        -1.23982
C          6.09342         6.56312        -1.10884
C          4.87724         5.81403        -1.03785
C          6.05153         7.95326        -0.88165
C          4.84366         8.60805        -0.47920
C          6.16985        10.59428         0.37912
C          4.86849         9.92701         0.01140
C          6.11307        12.10895         0.44454
C          4.90471        12.79030         0.62445
C          6.09645        14.93650         0.77699
C          4.87311        14.20998         0.72144
C          6.09595        16.34850         0.95400
C          4.84831        17.04218         1.08145
C          6.08179        19.17830         1.26780
C          4.85254        18.46473         1.23483
C          6.09321        20.60513         1.39722
C          4.83292        21.32168         1.41391
C          6.05260        23.47891         1.38234
C          4.83691        22.76631         1.34657
C          6.07300        24.87652         1.17486
C          4.84590        25.58515         0.98932
C          6.09564        27.70753         0.77393
C          4.85614        27.00666         0.79781
C          6.10621        29.12622         0.63733
C          4.87286        29.83857         0.47245
C          6.09275        31.98117         0.24907
C          4.90443        31.27366         0.18584
C          6.13839        33.39270        -0.09164
C          4.91527        34.04188        -0.54106
C          6.09786        36.20561        -0.77150
C          4.93935        35.45494        -0.84695
C          6.17012        37.54717        -1.32869
C          5.04848        38.15138        -1.90068
C          8.61169         3.79771        -1.58908
C          7.37216         4.45987        -1.45670
C          8.56105         6.62505        -1.51735
C          7.34669         5.89700        -1.37313
C          8.51733         8.10230        -1.52614
C          7.24174         8.78141        -1.13600
C          8.60094        10.84241        -0.35535
C          7.29620        10.15446        -0.53536
C          8.56715        12.17641         0.09693
C          7.34369        12.82210         0.41856
C          8.54735        14.94231         0.87427
C          7.33961        14.24136         0.68628
C          8.55624        16.33929         1.04564
C          7.32202        17.05854         1.05423
C          8.56551        19.17727         1.33159
C          7.32891        18.47712         1.21331
C          8.56092        20.60240         1.47178
C          7.31961        21.29392         1.48974
C          8.57815        23.47869         1.47391
C          7.30066        22.76503         1.83134
C          8.56402        24.88355         1.26895
C          7.32314        25.59228         1.13247
C          8.57115        27.70202         0.81125
C          7.33008        26.99287         0.91876
C          8.56340        29.12980         0.64982
C          7.34380        29.82763         0.64589
C          8.61780        31.99153         0.44489
C          7.32213        31.31884         0.84100
C          8.58062        33.50642         0.55656
C          7.31043        34.12207         0.00996
C          8.56181        36.03349        -1.03864
C          7.34919        35.62232        -0.16337
C          8.64796        37.54664        -1.11401
C          7.43210        38.21265        -1.39284
C         11.05532         3.82338        -1.78074
C          9.84035         4.50763        -1.67876
C         11.04029         6.69747        -1.48729
C          9.80296         5.96557        -1.65028
C         11.03457         8.04209        -1.14465
C          9.82890         8.85408        -1.26846
C         11.06393        10.86916        -0.38331
C          9.81495        10.20853        -0.66765
C         11.08796        12.22588         0.00470
C          9.81048        13.02103        -0.03406
C         11.08017        14.93823         0.99193
C          9.81011        14.12896         1.00510
C         11.02801        16.30034         1.25895
C          9.79522        17.04525         1.22562
C         11.05603        19.16430         1.53072
C          9.80315        18.45067         1.34962
C         11.03356        20.61399         1.63178
C          9.81232        21.31687         1.59171
C         11.01638        23.51197         1.61927
C          9.79419        22.77622         1.56513
C         11.01543        24.90368         1.44056
C          9.79828        25.59713         1.18316
C         11.03991        27.71859         0.72348
C          9.80078        27.00872         0.92410
C         11.00830        29.11625         0.39659
C          9.81083        29.83053         0.43297
C         11.03769        31.99628        -0.19635
C          9.77370        31.28377         0.26255
C         11.10623        33.42426         0.36784
C          9.84016        34.17319         0.03922
C         11.09456        36.10405        -0.96643
C          9.83619        35.37930        -0.56623
C         11.09909        37.58600        -0.49906
C          9.82115        38.24717        -0.92493
C         13.62378         3.88688        -2.07221
C         12.29234         4.59419        -2.12658
C         13.46202         6.52270        -1.04851
C         12.30011         5.94072        -1.44610
C         13.49726         8.00340        -1.01141
C         12.24992         8.66283        -0.50328
C         13.51361        10.84314        -0.39640
C         12.30145        10.16783        -0.51597
C         13.53811        12.20858         0.02494
C         12.30414        12.87974         0.28759
C         13.55458        14.90251         0.94153
C         12.32209        14.24733         0.77311
C         13.58155        16.25927         1.50805
C         12.25414        17.01113         1.63590
C         13.52935        19.14469         2.12464
C         12.25417        18.47459         1.66308
C         13.51539        20.63494         1.86290
C         12.29080        21.30366         1.77032
C         13.57763        23.51774         1.96824
C         12.25642        22.77047         1.93683
C         13.58418        24.99702         1.73825
C         12.25857        25.70505         1.51314
C         13.52998        27.71816         0.75063
C         12.27216        27.05131         0.91313
C         13.54956        29.07720         0.37876
C         12.28705        29.76525        -0.07556
C         13.53941        31.93108         0.08034
C         12.32269        31.25802         0.10439
C         13.59761        33.37230        -0.04814
C         12.35978        34.11662        -0.10745
C         13.61081        36.22553        -0.47071
C         12.34489        35.41664        -0.51599
C         13.52731        37.55191        -1.19051
C         12.31135        38.24747        -1.10561
C         16.07686         3.92863        -1.94811
C         14.77162         4.48737        -1.65364
C         16.00141         6.57419        -0.88355
C         14.72478         5.74660        -0.80464
C         16.03646         7.95176        -0.91538
C         14.78322         8.73675        -1.10047
C         16.04829        10.82414        -0.36520
C         14.79391        10.26033        -0.96829
C         16.02989        12.17904         0.03322
C         14.78379        12.88433         0.21671
C         16.03770        14.91236         0.89178
C         14.79401        14.24232         0.64890
C         16.04673        16.34140         1.20942
C         14.82505        17.04933         1.42684
C         16.01951        19.16312         1.69339
C         14.80813        18.43886         1.68056
C         16.01083        20.61240         1.76349
C         14.76791        21.33891         1.79761
C         16.01634        23.45117         1.45817
C         14.80891        22.75446         1.70969
C         16.02578        24.87701         1.19506
C         14.81340        25.62988         1.23491
C         16.01495        27.66779         0.60946
C         14.78394        26.99974         0.89699
C         16.01915        29.06367         0.34337
C         14.77733        29.77921         0.26591
C         16.01898        31.86658        -0.13942
C         14.79118        31.19212         0.06790
C         16.03445        33.26747        -0.43035
C         14.81074        34.01042        -0.37850
C         15.97834        35.99042        -1.23440
C         14.82847        35.39716        -0.75993
C         15.93004        37.29853        -1.98763
C         14.66657        38.08245        -1.78762
C         18.52133         3.99367        -2.04762
C         17.25037         4.53088        -1.59354
C         18.52656         6.57367        -0.87140
C         17.26710         5.77025        -0.71028
C         18.51685         7.96833        -0.80837
C         17.26791         8.69123        -0.75200
C         18.50871        10.79617        -0.32850
C         17.26226        10.09145        -0.48045
C         18.50858        12.18325        -0.00526
C         17.25849        12.86261         0.28484
C         18.57527        14.77890         1.17771
C         17.24473        14.20176         0.73721
C         18.53108        16.28519         1.43916
C         17.25981        17.03561         1.32319
C         18.48881        19.16391         1.55886
C         17.27683        18.46075         1.52226
C         18.49726        20.59058         2.04111
C         17.22337        21.32500         1.71708
C         18.48779        23.41562         1.27112
C         17.24734        22.72943         1.49653
C         18.48802        24.79351         0.90623
C         17.24224        25.52537         0.87475
C         18.45813        27.61100         0.32001
C         17.24817        26.93575         0.59546
C         18.48193        29.01962         0.15503
C         17.24947        29.75011         0.13910
C         18.49285        31.83105        -0.33908
C         17.25882        31.14903        -0.11529
C         18.49776        33.22686        -0.64902
C         17.24848        33.92954        -0.72926
C         18.44466        36.00869        -1.32309
C         17.23497        35.30069        -1.13321
C         18.39919        37.44113        -1.57781
C         17.19205        38.09001        -1.79748
C         19.70693         4.57484        -1.77004
C         21.00549         6.63435        -1.19497
C         19.81277         5.78746        -0.86811
C         20.96565         7.98924        -1.13299
C         19.75303         8.70833        -0.84421
C         20.93558        10.88394        -0.61256
C         19.74307        10.12012        -0.60360
C         20.91334        12.25198        -0.37417
C         19.72185        12.91686        -0.04768
C         20.98324        15.06803         0.47616
C         19.65717        14.42577         0.12731
C         21.04897        16.27784         1.04363
C         19.82079        17.03143         1.41811
C         20.99264        19.23896         1.72422
C         19.79573        18.52520         1.15010
C         20.97721        20.59386         1.83719
C         19.75688        21.32745         1.67767
C         20.93056        23.37023         0.96578
C         19.73235        22.69583         1.33193
C         20.90604        24.69627         0.57563
C         19.70634        25.42970         0.56038
C         20.94504        27.63452         0.39731
C         19.71911        26.83923         0.02484
C         20.94026        28.98379         0.30312
C         19.72301        29.72068         0.03434
C         20.94044        31.84204        -0.46040
C         19.73074        31.11786        -0.24070
C         20.93230        33.18597        -0.76150
C         19.71804        33.92082        -0.86392
C         20.88212        36.10603        -1.23713
C         19.70312        35.34536        -1.15170
C         20.83918        37.49818        -1.45408
C         19.63938        38.16204        -1.60518
O          3.34596        37.26450        -0.37710
O          6.91686         9.98816        -1.93029
O         19.24672        16.64439         2.70298
O          3.70872        11.06138         1.87800
O         12.91351        16.39208         2.82232
O         12.89854        23.16162         3.20658
O         12.93602        25.72112         2.82798
O          9.21709         8.75140        -2.61451
O         14.01385         8.41153        -2.33222
O          1.47274        16.35889         2.34017
O         11.14373        36.17380        -2.41815
H         11.00382        35.27092        -2.77267
O          6.50057        10.12561         1.72464
H          5.73914        10.37672         2.29801
O         15.92297        36.91125        -3.42610
H         16.77105        36.44950        -3.60155
O         14.82526        10.80281        -2.33119
H         14.29875        10.17833        -2.88569
O         12.19573         8.30766         0.92057
H         11.42941         8.77094         1.32022
O         18.92386        14.10688         2.40522
H         19.23906        14.80353         3.03038
O          7.18582        31.51766         2.31604
H          7.73499        30.83301         2.75593
O         19.20409        14.99168        -1.13115
H         19.87170        14.79045        -1.81909
O         12.25624        29.57939        -1.56682
H         13.15497        29.80181        -1.89559
O          8.30784        35.56189        -2.38900
H          8.30857        34.58158        -2.37130
O         18.52763        20.50044         3.52467
H         17.72062        20.01441         3.80155
O         13.75062        36.59504         0.96485
H         13.81280        35.75773         1.47516
O          0.73185        18.87940         3.11818
H          0.82642        17.90181         3.23741
O          9.76839        13.47026         2.30635
H          9.85292        14.15908         2.99857
O         20.03216         5.25921         0.48974
H         19.17461         4.85200         0.76455
O          7.24473        22.81862         3.30908
H          8.07227        22.41545         3.64923
O          8.56962        33.79239         2.01521
H          7.92961        33.13802         2.41211
O         11.17596        37.63745         0.94828
H         12.09705        37.37372         1.20435
O          7.51781        36.22463         1.14717
H          7.98703        35.57421         1.72379
O         11.24511        33.31739         1.80905
H         10.36699        33.53145         2.21277
O         17.29475         5.24571         0.69650
H         17.33015         6.03110         1.28592
O         10.95328        32.09454        -1.64988
H         11.17364        31.19572        -1.99798
O          2.12901        30.31146         1.85762
H          1.30168        30.83842         1.87176
O         12.14233         4.93044        -3.56255
H         12.77746         5.65136        -3.76335
O         13.52194        18.99966         3.58861
H         13.39288        18.03502         3.76404
O         19.90094        18.65172        -0.31023
H         19.92299        19.60888        -0.52331
O          1.15811        15.20019        -1.13231
H          1.12724        14.32934        -1.58186
O          9.75177        13.66437        -1.34324
H          9.71368        12.95855        -2.02301
O         19.76638        26.68986        -1.44860
H         19.77839        27.59571        -1.82553
O         14.61838         5.29095         0.58300
H         15.48844         4.88313         0.81750
H          1.25719         2.51443        -1.31907
H         -0.92279         3.68225        -1.01067
H         -1.00586         6.10699        -0.57914
H         -1.03581         8.01892        -0.22119
H         -1.03777        10.38626         0.30324
H         -1.02633        12.25363         0.82224
H         -1.06399        14.68462         0.71471
H         -0.82229        16.82367        -0.08992
H         -0.84009        19.18746         0.52452
H         -1.00621        20.85786         1.82121
H         -1.03206        23.28844         1.49520
H         -1.03660        25.09813         0.87238
H         -1.01527        27.48029         0.35380
H         -0.84711        29.12999        -0.69676
H         -0.79293        31.46517        -1.37835
H         -0.69867        33.18981        -2.16732
H         -0.61042        35.52149        -2.93991
H          0.65005        37.57997        -3.35381
H          3.70832         2.58558        -1.41640
H          2.68504        38.94971        -3.14522
H          6.17533         2.64357        -1.51146
H          5.17141        39.05751        -2.51290
H          8.62807         2.69874        -1.63729
H          7.45036        39.28454        -1.64449
H         11.06864         2.72332        -1.76139
H          9.79541        39.34828        -0.97558
H         13.69430         2.94193        -2.63651
H         12.22360        39.24652        -1.56127
H         16.11148         3.01637        -2.56645
H         14.60584        39.06992        -2.27208
H         18.48754         3.08327        -2.66756
H         17.18379        39.17168        -1.99965
H         20.64127         4.12130        -2.13443
H         21.95390         6.12122        -1.41412
H         21.89090         8.55316        -1.31844
H         21.89961        10.40610        -0.82969
H         21.86275        12.80086        -0.43485
H         21.92169        14.56205         0.20554
H         22.02854        16.73988         1.24174
H         21.92916        18.68466         1.87709
H         21.91134        21.13012         2.06538
H         21.88513        22.82769         0.96581
H         21.84340        25.17168         0.25712
H         21.88208        27.11339         0.63856
H         21.86901        29.54118         0.49188
H         21.90444        31.31826        -0.40625
H         21.89255        33.69124        -0.93256
H         21.86240        35.62867        -1.10691
H         21.78334        38.05958        -1.49594
H         19.61948        39.24789        -1.77548
