         667
 CSIRO Nanostructure Databank - Neutral Graphene Oxide Data Set
C          5.95289        31.89351         0.63555
C          5.98547        33.26072         0.61345
C          8.40217        27.52614         0.45005
C          8.39919        28.94097         0.58434
C          7.17409        29.71316         0.67336
C          8.40427        31.84564         0.95743
C          7.15316        31.09406         0.74947
C          8.45242        33.29324         0.73414
C          7.22150        34.02188         0.63353
C          8.48477        36.14277         0.50492
C          7.25313        35.41450         0.55078
C          8.50577        37.54398         0.45678
C         10.92494        23.18839         1.00506
C         10.80699        24.69779         1.07016
C          9.65502        25.28834         0.20619
C         10.81495        27.52438         0.21688
C          9.60409        26.81124         0.32357
C         10.84439        28.93659         0.23349
C          9.63878        29.62442         0.50827
C         10.90744        31.78786         0.40294
C          9.71338        31.05253         0.80500
C         10.89863        33.18985         0.42248
C          9.68879        33.95466         0.63287
C         10.96559        36.05776         0.45890
C          9.73256        35.39090         0.52004
C         10.94629        37.47407        -0.10910
C          9.71935        38.29014         0.26680
C         11.04855        40.43908         0.07025
C          9.75131        39.66317         0.18174
C         10.96587        41.86703        -0.41769
C         13.38177        19.03624         1.15723
C         13.32890        20.32957         0.69950
C         11.97055        20.98328         0.51445
C         13.12982        23.19691        -0.13424
C         12.01398        22.49504         0.61546
C         13.39991        24.59578         0.45522
C         12.13199        25.40732         0.71187
C         13.32780        27.49456        -0.23415
C         12.11253        26.82678         0.28926
C         13.29250        28.94223        -0.33572
C         12.08081        29.65107        -0.00246
C         13.24662        31.79719        -0.36700
C         12.07642        31.07126         0.00822
C         13.31914        33.19187        -0.20998
C         12.12395        33.87750         0.19204
C         13.46574        35.80677         0.55897
C         12.15692        35.26967         0.40807
C         13.44429        37.95403         0.33102
C         12.21415        38.30868        -0.12954
C         13.39144        40.41438        -0.83380
C         12.08236        39.66640        -0.76972
C         13.35067        41.79112        -1.11146
C         12.08547        42.51809        -0.90076
C         13.31071        44.64415        -1.28383
C         12.13742        43.94808        -0.98479
C         13.38574        46.02615        -1.02085
C         15.76154        14.64612         1.05435
C         15.75377        16.10624         0.97967
C         14.61844        16.84020         1.27731
C         15.85548        18.98801         0.78461
C         14.67599        18.33137         1.44790
C         15.77210        20.35597         0.44647
C         14.53093        21.03157         0.35044
C         15.78562        23.20678         0.20856
C         14.50951        22.41389        -0.28199
C         15.80820        24.65512        -0.21165
C         14.46650        25.29874        -0.44276
C         15.71595        27.43828        -0.89053
C         14.50199        26.80205        -0.40379
C         15.60619        28.86606        -1.38989
C         14.42675        29.60712        -0.78206
C         15.69443        31.80916        -1.10357
C         14.37383        31.05706        -0.93107
C         15.76048        33.22232        -0.71640
C         14.57098        33.91169        -0.39713
C         15.91092        36.09807         0.16246
C         14.61754        35.28875         0.01373
C         15.84900        37.59550        -0.29190
C         14.70372        38.39310        -0.24480
C         15.79978        40.39219        -1.21069
C         14.62931        39.73672        -0.79297
C         15.75187        41.75759        -1.56030
C         14.53937        42.46711        -1.46775
C         15.80369        44.64204        -1.70037
C         14.48380        43.90900        -1.92732
C         15.72971        46.14692        -1.90792
C         14.56320        46.78664        -1.19267
C         15.83511        48.90284        -0.92573
C         14.62507        48.12583        -0.83968
C         15.79883        50.28975        -0.62671
C         18.29378        10.38820         1.49827
C         18.22827        11.80343         1.29600
C         17.01556        12.50803         1.28128
C         18.21385        14.74712         1.20234
C         16.94153        13.93002         1.13854
C         18.13613        15.92093         0.21879
C         16.96412        16.79099         0.61196
C         18.21457        18.82756        -0.00380
C         17.03750        18.20687         0.50384
C         18.32058        20.28171         0.02087
C         17.03803        21.09273         0.23244
C         18.20861        23.16371        -0.54049
C         17.03222        22.48302        -0.21960
C         18.20472        24.58453        -0.76297
C         16.95603        25.30492        -0.65050
C         18.07252        27.36177        -1.74117
C         16.88280        26.72282        -1.04117
C         18.16017        28.88339        -1.53679
C         16.92639        29.62802        -1.30040
C         18.14099        31.79971        -1.41607
C         16.93035        30.99903        -1.16023
C         18.20200        33.23068        -1.00517
C         17.02978        33.90101        -0.68455
C         18.37215        36.08335        -0.39981
C         17.01196        35.42249        -0.68456
C         18.29498        37.52696        -0.88216
C         17.06640        38.19326        -0.82342
C         18.30171        40.28294        -1.75663
C         17.00372        39.56024        -1.39405
C         18.31814        41.78141        -1.86333
C         17.00373        42.50422        -1.84848
C         18.24390        44.62902        -1.07421
C         16.97457        43.96785        -1.57977
C         18.32863        46.08845        -1.45929
C         17.05359        46.87246        -1.69386
C         18.34567        49.03893        -1.27390
C         17.04453        48.28583        -1.30987
C         18.24716        50.38067        -0.56985
C         16.98437        51.04953        -0.44983
C         18.12831        53.08038         0.35929
C         16.94978        52.39840        -0.02969
C         18.10593        54.43929         0.76786
C         20.87092         6.15392         1.51744
C         20.80403         7.55979         1.44564
C         19.58478         8.26833         1.58669
C         20.70951        10.36654         0.84107
C         19.49077         9.66652         1.39701
C         20.70562        11.85050         1.04930
C         19.48531        12.53419         1.13300
C         20.66440        14.65582         0.85849
C         19.47746        13.95025         1.03139
C         20.63884        16.07051         0.48407
C         19.42803        16.68290         0.12441
C         20.68021        18.77635        -0.56381
C         19.34715        18.00520        -0.59049
C         20.70024        20.26127        -0.71147
C         19.44171        21.01914        -0.59798
C         20.68945        23.12318        -0.94902
C         19.44214        22.40100        -0.70402
C         20.67869        24.55151        -1.17957
C         19.41181        25.28152        -1.13253
C         20.62146        27.32092        -1.86921
C         19.38249        26.64157        -1.45381
C         20.62429        28.84348        -2.03849
C         19.34925        29.55671        -1.73760
C         20.67888        31.77889        -1.82036
C         19.37316        31.03784        -1.79892
C         20.75487        33.11122        -1.08091
C         19.47852        33.93409        -1.09113
C         20.87413        36.02548        -0.92846
C         19.55075        35.29165        -0.94076
C         20.73150        37.41489        -1.52337
C         19.50426        38.19795        -1.27737
C         20.80518        40.30801        -1.60687
C         19.55805        39.57326        -1.52530
C         20.78807        41.76958        -1.48227
C         19.58034        42.48732        -1.50019
C         20.76343        44.57107        -1.00074
C         19.56576        43.89548        -1.28341
C         20.85525        46.08476        -1.03273
C         19.51248        46.81333        -0.92843
C         20.82341        48.87813        -0.60122
C         19.49142        48.15044        -0.76237
C         20.58937        50.17782         0.16476
C         19.39552        51.01327        -0.09025
C         20.54902        52.99040         0.92179
C         19.36346        52.34814         0.40650
C         20.51054        54.36569         1.29388
C         19.27237        55.09959         1.21907
C         20.42634        57.11185         2.08696
C         19.25645        56.45388         1.62625
C         20.39621        58.47410         2.47100
C         23.35778         3.35924         1.53743
C         22.11933         4.04971         1.50917
C         23.36899         6.12517         0.96422
C         22.07768         5.43926         1.37114
C         23.27462         7.62934         1.03105
C         22.05336         8.29527         1.25845
C         23.21331        10.43783         1.26648
C         22.01258         9.70770         1.20621
C         23.18846        11.89289         1.17724
C         21.93172        12.56143         1.02912
C         23.14125        14.70671         1.02421
C         21.92443        13.98373         0.95488
C         23.05514        16.19491         1.17390
C         21.87062        16.74790         0.42351
C         23.09347        18.98054         0.35730
C         21.83602        18.18862         0.19101
C         23.11257        20.36599        -0.15432
C         21.94087        21.02615        -0.45861
C         23.17873        23.10515        -0.98373
C         21.89364        22.43139        -0.76943
C         23.17489        24.56233        -1.35571
C         21.88193        25.25987        -1.37926
C         23.13140        27.38587        -1.69465
C         21.91775        26.66966        -1.61263
C         23.13336        28.83572        -1.86677
C         21.92723        29.53595        -1.94526
C         23.22197        31.72749        -1.70068
C         21.95509        31.01149        -1.95777
C         23.22531        33.11697        -1.67333
C         21.99541        33.88010        -1.49352
C         23.25686        35.97500        -2.02130
C         22.01734        35.24266        -1.51643
C         23.28634        37.43830        -1.66676
C         22.02694        38.17252        -1.81156
C         23.31945        40.36834        -1.78088
C         22.00749        39.63302        -1.67733
C         23.26070        41.75238        -1.17598
C         22.01986        42.45008        -1.18928
C         23.17205        44.46162        -0.34152
C         21.98659        43.84440        -0.87590
C         22.98256        45.74469         0.46238
C         21.90941        46.66708        -0.11420
C         23.05189        48.73921         0.58481
C         21.88862        48.01580         0.08529
C         23.04489        50.09602         0.74851
C         21.77362        50.82995         0.80084
C         22.95713        52.92394         1.47826
C         21.77030        52.27746         1.04064
C         22.89381        54.27193         1.88490
C         21.68665        55.00244         1.78992
C         22.86531        57.05238         2.57716
C         21.66228        56.38771         2.17313
C         22.82449        58.46209         2.88491
C         21.56874        59.15129         2.87656
C         22.69304        61.16863         3.65058
C         21.53342        60.52094         3.26776
C         24.55234         4.04243         1.63028
C         25.73828         6.08762         2.11590
C         24.58958         5.48709         1.65727
C         25.91907         7.49289         2.52624
C         24.41041         8.41824         0.73238
C         25.76913        10.48064         1.36042
C         24.45532         9.76037         1.18341
C         25.58712        11.94716         1.80889
C         24.37697        12.62078         1.22571
C         25.61442        14.78624         1.30524
C         24.37590        14.04673         1.17029
C         25.58900        16.20207         1.12454
C         24.36235        16.89709         0.90010
C         25.60286        18.97892         0.64274
C         24.37456        18.26782         0.62534
C         25.64084        20.38791         0.18828
C         24.35107        21.12041         0.07415
C         25.65693        23.29693        -0.35786
C         24.37909        22.56068        -0.29787
C         25.61441        24.67360        -0.69704
C         24.41073        25.33896        -1.16402
C         25.68264        27.38011        -1.63683
C         24.38239        26.69837        -1.44301
C         25.70420        28.84692        -2.06892
C         24.39103        29.57094        -1.82997
C         25.70244        31.69271        -1.64592
C         24.43808        30.95942        -1.71603
C         25.69937        33.11342        -1.57979
C         24.47875        33.84560        -1.62755
C         25.72313        35.95524        -1.38794
C         24.50934        35.24317        -1.62948
C         25.72319        37.39059        -1.27833
C         24.49396        38.12557        -1.42287
C         25.71202        40.23893        -1.04640
C         24.50337        39.55328        -1.31852
C         25.69628        41.65884        -0.74107
C         24.44564        42.39009        -0.75014
C         25.52405        44.30823         0.53177
C         24.36609        43.75045        -0.27842
C         25.60227        45.82947         0.49370
C         24.30062        46.48730         0.74551
C         25.58885        48.69812         0.69068
C         24.30655        47.98769         0.81499
C         25.59123        50.17510         0.78426
C         24.27985        50.88529         0.87493
C         25.41843        52.83666         1.87347
C         24.22968        52.22318         1.48349
C         25.40557        54.31458         2.17844
C         24.05048        54.83458         2.66635
C         25.31709        56.97994         3.05519
C         24.07447        56.33881         2.72523
C         25.36217        58.49500         3.12682
C         24.00619        59.15486         3.24524
C         23.93003        60.49324         3.63037
C         26.94510         8.29979         2.08615
C         28.13942        10.58358         2.01779
C         26.87952         9.79395         2.31279
C         28.10922        11.96502         1.76377
C         26.87836        12.70069         1.64352
C         28.11254        14.84851         1.54832
C         26.87198        14.10360         1.49336
C         28.03836        16.27401         1.55465
C         26.80632        16.94011         1.21130
C         28.00775        19.15623         1.29792
C         26.80028        18.33746         0.98915
C         28.02688        20.62430         1.05679
C         26.88694        21.20447         0.27975
C         27.96737        23.44726         0.45904
C         26.83164        22.67766         0.12447
C         27.77547        24.83112         0.37213
C         26.75382        25.44368        -0.36995
C         28.20872        27.53260        -1.00769
C         26.92218        26.75829        -1.01771
C         28.16459        28.82506        -1.41501
C         26.84853        29.54532        -1.30249
C         28.16687        31.70435        -1.64066
C         26.92485        31.01120        -1.60324
C         28.15504        33.10678        -1.54718
C         26.92853        33.82205        -1.44235
C         28.17062        35.90596        -0.74598
C         26.92772        35.22991        -1.25313
C         28.18418        37.38703        -0.96633
C         26.96829        38.09400        -1.10530
C         28.20791        40.30580        -1.16776
C         26.93538        39.52299        -1.03054
C         28.15943        41.67061        -0.53664
C         26.91114        42.28017        -0.33432
C         28.14976        44.40905         0.27172
C         26.86948        43.62340         0.28228
C         28.07182        45.89337         0.19705
C         26.77196        46.55920         0.49752
C         28.03130        48.81637         0.66642
C         26.77333        48.02014         0.57704
C         27.98943        50.13850         1.32361
C         26.78067        50.83028         1.36455
C         27.91346        52.87286         2.17127
C         26.68318        52.17275         1.81915
C         27.85915        54.19268         2.63543
C         26.54806        54.76481         3.11755
C         26.48689        56.27312         3.22120
C         29.31645        12.69965         1.53774
C         30.63547        14.67842         1.07256
C         29.36920        14.10072         1.43990
C         30.99204        16.01092         1.40576
C         29.16015        17.09571         1.87764
C         30.53857        19.13905         1.36625
C         29.30384        18.46908         1.52901
C         30.59103        20.56208         1.05964
C         29.33495        21.37832         1.15123
C         30.64913        23.57166         0.62108
C         29.29987        22.87408         0.90747
C         30.77016        24.87212        -0.11072
C         29.67890        25.79319        -0.09351
C         30.68695        27.41717        -1.55009
C         29.49098        26.83685        -0.96654
C         30.67228        28.74390        -1.85144
C         29.36620        29.50113        -2.01447
C         30.63150        31.59919        -1.50723
C         29.42760        30.96932        -1.65352
C         30.71595        33.05960        -1.62644
C         29.40197        33.87200        -1.65186
C         30.68404        35.92369        -1.17129
C         29.45040        35.26438        -1.21807
C         30.74106        37.37596        -0.99349
C         29.45848        38.08010        -0.56277
C         30.64939        40.24786        -0.77325
C         29.47364        39.55617        -0.84493
C         30.64928        41.68099        -0.55345
C         29.41063        42.36138        -0.37037
C         30.64192        44.45504         0.00451
C         29.43054        43.76407        -0.10791
C         30.71691        45.96485         0.05329
C         29.35870        46.65553         0.17998
C         30.43016        48.59716         1.57631
C         29.35081        48.10380         0.59588
C         30.43911        50.09796         1.66422
C         29.22718        50.80557         1.68283
C         29.15152        52.18178         2.04241
C         31.81940        16.97284         0.88344
C         33.04303        19.10948         0.97183
C         31.86577        18.36287         1.52306
C         33.02780        20.44545         0.63917
C         31.78669        21.20645         0.73854
C         33.09237        23.23217        -0.14728
C         31.88627        22.68162         0.53513
C         33.11070        24.49330        -0.72030
C         31.91728        25.28476        -0.77210
C         33.21026        27.28909        -1.58317
C         31.90688        26.52035        -1.67763
C         33.23008        28.74361        -1.92834
C         31.92313        29.53784        -2.14500
C         33.15779        31.61674        -1.19929
C         31.88387        30.79199        -1.22480
C         33.10245        33.01013        -0.96079
C         31.92372        33.76037        -1.19163
C         33.20021        35.86724        -1.19959
C         31.90226        35.17009        -1.18113
C         33.22078        37.38048        -1.28908
C         31.92106        38.06807        -1.05718
C         33.16743        40.21363        -0.50881
C         31.95498        39.57840        -1.14016
C         33.10617        41.59669        -0.16435
C         31.87699        42.34103        -0.25525
C         33.08810        44.39011         0.45718
C         31.87429        43.73887         0.03481
C         33.13160        45.86491         0.82287
C         31.73513        46.43835         1.16331
C         31.71490        47.93367         1.19796
C         34.25282        21.09818         0.27813
C         35.54905        23.10679        -0.29312
C         34.31539        22.44477        -0.09118
C         35.62174        24.46251        -0.70301
C         34.37839        25.07684        -1.32850
C         35.66898        27.31949        -1.39046
C         34.36675        26.60935        -1.34239
C         35.69130        28.77080        -1.18880
C         34.46431        29.51286        -1.53155
C         35.61408        31.62327        -0.84369
C         34.39143        30.94407        -1.18307
C         35.59160        32.99571        -0.48461
C         34.26156        33.70190        -0.29254
C         35.47004        35.91260        -0.16150
C         34.36756        35.14803        -0.70260
C         35.58889        37.34608        -0.31597
C         34.53580        38.14932        -1.06442
C         35.54856        40.15722         0.07054
C         34.36220        39.51287        -0.42263
C         35.49176        41.52606         0.40052
C         34.29384        42.25628         0.27089
C         34.24590        43.65531         0.57981
C         36.81045        25.16190        -0.58996
C         38.10419        27.35246        -0.59054
C         36.95834        26.55197        -1.02246
C         38.09931        28.73399        -0.64939
C         36.86530        29.46053        -0.91809
C         38.05474        31.61061        -0.54196
C         36.84809        30.90491        -0.78265
C         38.04117        33.01725        -0.38277
C         36.80247        33.68340        -0.26315
C         38.03411        35.88348         0.24947
C         36.78650        35.11013         0.15100
C         37.98203        37.24287         0.34758
C         36.76481        38.00396         0.09740
C         36.75799        39.41290         0.21282
C         39.29386        29.49633        -0.37794
C         40.51640        31.62505        -0.12437
C         39.29642        30.87134        -0.37748
C         40.54237        32.97208        -0.11397
C         39.33131        33.81682        -0.42022
C         39.29590        35.07341         0.46430
O         17.98342        46.48480        -2.79832
O         31.55393        23.46358         1.74805
O         21.26681        49.10877        -1.92298
O         33.31348        36.60284        -2.52514
O         29.28045        22.33846         2.25958
O         28.97133        48.93330        -0.50647
O         20.77562        50.07356         1.61297
O         13.55946        36.96925         1.32580
O         17.70057        42.23803        -3.11689
O         21.27871        31.68092        -3.12604
O          9.17935        31.41225         2.12297
O         27.67348        43.78546         1.51566
O         21.18125        37.57765        -2.89210
O         30.16145        33.58105        -2.87068
O         18.51401        31.60975        -2.84446
O         24.12483        22.16372         1.10224
O         17.49246        39.63441        -2.77822
O         20.95225        19.34558        -1.88367
O         22.10967        18.90674         1.48500
O         24.25633        47.16049         2.05569
O         12.40744        26.43745         1.73209
O         14.81457        31.54135        -2.26026
O         30.20028        16.46696         2.52998
O         34.17131        29.13268        -2.97979
O         17.97925        20.86699         1.34058
O         28.62242        46.41536        -1.06937
O         36.56007        26.79502        -2.43146
O         28.74497        25.64686         0.93864
O         26.57688        26.57727        -2.46642
O         23.37243        23.50079        -2.37538
O         26.54662        20.52090        -0.97979
O         20.51683        27.95250        -3.20777
O         35.86689        35.43085         1.20419
O         25.06648        50.87284        -0.39822
O         27.64225        20.12329         2.37542
O         26.40543        54.21397         4.45798
H         25.44693        54.24881         4.69625
O         31.85345        25.98215        -3.03245
H         32.68612        25.46367        -3.17566
O         18.07804        44.67641         0.38677
H         18.33076        43.80657         0.76123
O         14.89726        18.53904         2.91642
H         15.20200        19.46584         3.03125
O         16.64736        35.73689        -2.05379
H         17.24587        35.25396        -2.66197
O         31.86268        29.99004        -3.51019
H         32.77544        29.90531        -3.88137
O         15.42480        46.30345        -3.33338
H         16.28829        46.24692        -3.80729
O         23.57075         5.77446        -0.44284
H         24.37940         6.25104        -0.73650
O         18.74979        49.34345        -2.64119
H         19.75811        49.36671        -2.64252
O         14.21841        43.87027        -3.35375
H         14.43621        44.77229        -3.69941
O         39.33390        34.64215         1.82842
H         39.16801        35.41360         2.40748
O         23.55160        40.57327        -3.22589
H         22.78485        41.07077        -3.58282
O         19.01046        17.72275        -1.99136
H         19.58206        18.31620        -2.54054
O         10.46395        24.99579         2.43907
H         10.99606        25.78422         2.70422
O         26.59997         9.94622         3.72316
H         26.42558        10.89947         3.91659
O         25.93867        28.90457        -3.47834
H         26.58753        28.19704        -3.69850
O         21.32473        46.40763        -2.37271
H         21.37770        47.41559        -2.41704
O         23.81429        54.35036         4.03884
H         22.94660        54.70274         4.33071
O         11.01031        20.42750         1.40899
H         11.26200        20.67515         2.32223
O         22.77936        16.45163         2.60135
H         22.53505        17.40889         2.66012
O         17.84112        27.17069        -3.16884
H         18.64517        27.50992        -3.63273
O         22.45690        45.28688         1.73841
H         22.85357        45.86651         2.42995
O         15.87015        23.05696         1.65769
H         16.72224        23.43920         1.95371
O         32.08718        39.86609        -2.57695
H         31.44844        39.29954        -3.06000
O         33.74089        46.61029        -0.23169
H         33.13944        46.56433        -1.01092
O         29.10423        29.51256        -3.45777
H         29.94778        29.79052        -3.89061
O         13.94200        24.41054         1.76717
H         13.76032        25.23196         2.27772
O         20.59868        10.19769        -0.62527
H         20.57569         9.23260        -0.80199
O         31.25468        46.40118        -1.21755
H         30.49813        46.45867        -1.84562
O         12.55118        23.36980        -1.44435
H         12.25851        22.49371        -1.76924
O         32.12952        18.24296         2.94973
H         31.44714        17.63112         3.31326
O         11.56470        39.61358        -2.12921
H         12.31918        39.49652        -2.74433
O         31.31613        45.84244         2.39539
H         30.70470        46.47686         2.84945
O         25.41097         7.90304        -0.04109
H         26.07396         8.62474        -0.18961
O         21.25735        36.26993         0.48069
H         21.57177        35.41884         0.85523
O         16.22533        36.06148         1.56302
H         15.46745        36.47215         2.03537
O         18.27878        15.35169         2.52529
H         18.35378        14.63389         3.18775
O         25.25418        11.99381         3.25187
H         25.05534        12.93133         3.46450
O         25.15952        44.00242         1.90816
H         25.99148        44.03741         2.43472
O         39.46939        34.31274        -1.78415
H         39.53314        33.54006        -2.38391
O         18.61136        36.09776         1.02942
H         19.51460        36.46978         1.16900
O         26.41779        10.46890         0.05037
H         25.86849        11.00378        -0.56173
O         29.97000        48.08745         2.89770
H         30.44238        48.60032         3.58811
O         28.14693        35.66648         0.75850
H         27.25259        35.92645         1.07074
O         14.19492        25.02834        -1.86322
H         14.77723        25.62423        -2.38502
O         28.30631        40.55165        -2.63376
H         29.07487        41.14661        -2.77465
O         33.92887        33.60417         1.14839
H         34.59547        34.15759         1.62453
O         23.22096        35.91467        -3.48617
H         22.43197        36.43453        -3.77234
O         17.84511        15.38159        -1.10110
H         18.07296        16.08503        -1.75691
O         29.49578        38.00656         0.91407
H         29.18781        37.09405         1.15727
O         11.61432        40.50914         1.42032
H         10.97916        40.99407         1.98761
O         26.43934        29.44441         0.10345
H         27.12596        29.87847         0.65258
O         14.72060        22.20427        -1.69446
H         14.48430        23.05877        -2.13685
O          9.89704        24.93538        -1.15727
H          9.20544        25.34312        -1.71647
O         15.29970        28.78356        -2.81588
H         15.20767        29.71278        -3.13520
O         20.91777        32.71585         0.32666
H         20.55576        33.43018         0.89325
O         24.99170         7.92479         3.41705
H         25.28505         8.81544         3.74831
O         31.77033        30.25757         0.13028
H         31.90370        30.99596         0.76268
O         10.72652        37.16080        -1.53428
H         10.74040        38.02711        -2.01847
O         34.38978        24.71432        -2.74936
H         35.17111        25.16848        -3.14285
O         26.23585        58.93069         4.17476
H         25.88569        58.59742         5.02589
O         25.62234        54.97303         0.90210
H         26.37516        54.53380         0.45318
O         35.10211        38.43346        -2.37899
H         34.74133        37.75064        -2.99233
H          4.98640        31.37202         0.56569
H          5.04154        33.82057         0.53511
H          7.44774        26.97968         0.49903
H          6.22046        29.17077         0.57823
H          6.30654        35.97370         0.49653
H          7.55946        38.09640         0.56974
H         10.06731        22.62939         1.41479
H          8.67385        24.85341         0.54765
H          8.81423        40.23086         0.31111
H         10.06428        42.45612        -0.18213
H         12.44246        18.53604         1.44062
H         11.61741        20.73130        -0.52813
H         11.25874        44.51812        -0.64175
H         12.50727        46.52215        -0.57725
H         14.79259        14.12549         1.11032
H         13.69105        16.32382         1.56913
H         13.72764        48.61393        -0.43048
H         14.82438        50.76601        -0.44415
H         17.36560         9.85244         1.75480
H         16.07344        11.94141         1.35545
H         15.98173        52.91653         0.03426
H         17.15621        54.99330         0.73094
H         19.94697         5.58642         1.71319
H         18.67300         7.70011         1.83140
H         18.31381        57.01888         1.57396
H         19.44280        59.02202         2.43632
H         23.35405         2.26225         1.60960
H         21.18673         3.48887         1.67231
H         22.65841        62.22336         3.95738
H         20.57171        61.05369         3.26444
H         25.47973         3.48743         1.84211
H         26.60760         5.42509         2.28152
H         25.82447        58.86169         2.16667
H         24.85016        61.02160         3.91694
H         27.64873         7.90374         1.34114
H         29.11693        10.08139         2.08667
H         28.79692        54.71482         2.88401
H         27.39895        56.82509         3.49882
H         30.26021        12.13581         1.46915
H         31.39571        14.00430         0.64993
H         31.34630        50.58815         2.04912
H         30.07962        52.71283         2.30161
H         32.39610        16.77846        -0.03048
H         34.00089        18.56786         0.94443
H         33.78395        45.98593         1.72532
H         32.32343        48.43255         0.42376
H         35.18085        20.50892         0.31460
H         36.48076        22.57767        -0.04236
H         36.40117        42.03759         0.74986
H         35.16610        44.14592         0.93097
H         37.66846        24.68083        -0.09536
H         38.99379        26.82748        -0.21058
H         38.90962        37.81148         0.52046
H         37.67460        39.93605         0.52401
H         40.23148        28.94997        -0.19559
H         41.43676        31.05323         0.07025
H         41.48860        33.50206         0.07260
H         40.19983        35.70873         0.23946
