         651
 CSIRO Nanostructure Databank - Neutral Graphene Oxide Data Set
C          5.78310        31.79563        -0.03211
C          5.78884        33.16473        -0.06617
C          8.22098        27.49223        -0.26138
C          8.23574        28.88395        -0.22104
C          7.00048        29.63831        -0.19768
C          8.27846        31.72784         0.04054
C          6.99170        31.00888        -0.07217
C          8.29014        33.23342        -0.00885
C          7.00048        33.94105        -0.16383
C          8.24425        36.03146        -0.53527
C          7.01043        35.30205        -0.36760
C          8.25548        37.42427        -0.51115
C         10.71343        23.06228        -0.01972
C         10.68821        24.56433         0.09676
C          9.41810        25.29421        -0.26375
C         10.67486        27.38439        -0.39651
C          9.43202        26.69732        -0.32570
C         10.77244        28.84355        -0.08765
C          9.48793        29.61078        -0.25209
C         10.72409        31.75675        -0.53848
C          9.52490        31.00116        -0.27457
C         10.73608        33.15462        -0.65107
C          9.52414        33.91813        -0.44702
C         10.68397        35.98098        -1.16253
C          9.47496        35.27823        -0.69381
C         10.66217        37.49304        -1.15221
C          9.45761        38.19132        -0.63280
C         10.72643        40.31494        -0.43969
C          9.50071        39.54857        -0.36653
C         10.74073        41.67522        -0.47927
C         13.16822        18.79132        -0.04479
C         13.17382        20.16722        -0.03766
C         11.87224        20.89062         0.22227
C         13.17956        23.08753        -0.11705
C         11.89755        22.38944        -0.01476
C         13.20479        24.46775        -0.37977
C         11.91024        25.16235        -0.56423
C         13.20643        27.36399        -0.70916
C         11.90678        26.67173        -0.71632
C         13.23073        28.77359        -0.73766
C         11.93919        29.49481        -0.79899
C         13.23402        31.67366        -0.85896
C         11.94244        30.98991        -0.90125
C         13.26504        33.13614        -1.22746
C         11.95242        33.87804        -1.02035
C         13.25833        35.97082        -1.60336
C         11.96618        35.24173        -1.18407
C         13.25124        37.49412        -1.33347
C         11.96633        38.23808        -1.15283
C         13.27357        40.30630        -0.57560
C         12.00900        39.51858        -0.33686
C         13.27427        41.68733        -0.53338
C         11.99258        42.46075        -0.76351
C         13.23043        44.54187        -0.12578
C         12.03555        43.83563        -0.15748
C         13.26672        45.93150         0.20650
C         15.75721        14.63386         0.72692
C         15.70149        15.95709         0.14451
C         14.44128        16.65637         0.04283
C         15.58842        18.77379        -0.55918
C         14.37437        18.01800        -0.19486
C         15.61364        20.21679        -0.26451
C         14.42428        20.90714        -0.05549
C         15.62766        23.08440         0.00825
C         14.41867        22.36705        -0.00373
C         15.67252        24.49019        -0.33404
C         14.42312        25.18726        -0.57145
C         15.63681        27.35147        -1.01231
C         14.40198        26.60517        -0.75807
C         15.67967        28.81242        -0.84712
C         14.44301        29.50708        -0.74954
C         15.68346        31.65293        -0.60130
C         14.42465        30.95831        -0.72661
C         15.66307        33.11947        -0.33047
C         14.34694        33.90111        -0.46758
C         15.71340        35.98001        -0.97199
C         14.48999        35.30715        -1.00788
C         15.75233        37.44413        -1.01960
C         14.50722        38.18739        -0.91493
C         15.76039        40.28238        -0.24839
C         14.50162        39.54659        -0.65554
C         15.76778        41.75800        -0.63633
C         14.50654        42.45105        -0.53463
C         15.71198        44.60199        -0.44422
C         14.48577        43.84858        -0.41135
C         15.68892        45.96543        -0.15020
C         14.46904        46.65836         0.21162
C         15.70237        48.79308         0.64975
C         14.49727        48.05689         0.47964
C         15.74699        50.16807         0.83112
C         18.32982        10.71992         2.39997
C         18.28510        12.00141         1.80892
C         17.06088        12.70270         1.60271
C         18.21792        14.51589         0.31395
C         16.95955        13.96351         0.96508
C         18.21634        16.08921         0.25035
C         16.88468        16.62065        -0.19451
C         18.20963        18.75912        -0.49321
C         16.91770        18.01450        -0.62539
C         18.19702        20.16836        -0.21931
C         16.90057        20.84955         0.06852
C         18.17478        23.09269         0.37809
C         16.86696        22.35272         0.34405
C         18.11216        24.61354         0.33201
C         16.89303        25.18313        -0.35496
C         18.16335        27.40769        -0.53215
C         16.99099        26.56874        -0.81227
C         18.17051        28.79167        -0.76604
C         16.90896        29.51837        -0.85939
C         18.15341        31.70583        -0.90263
C         16.88439        30.95002        -0.72730
C         18.29310        33.10553        -0.31622
C         16.96977        33.88086        -0.31204
C         18.17913        35.89779        -1.21502
C         16.94520        35.28304        -0.74338
C         18.19450        37.42708        -1.36688
C         16.95949        38.11654        -0.98496
C         18.27970        40.28944        -0.97739
C         17.03944        39.54135        -0.61624
C         18.19132        41.76538        -1.20629
C         16.93369        42.47032        -0.85532
C         18.17500        44.60984        -0.80176
C         16.96729        43.92128        -0.76338
C         18.21729        46.06021        -0.55266
C         16.92402        46.75765        -0.22812
C         18.30196        48.68060         0.80234
C         16.96679        48.00605         0.59943
C         18.29636        50.11982         1.24799
C         16.98255        50.87662         1.20870
C         18.23799        53.04657         1.23728
C         17.04100        52.34738         1.21498
C         18.25930        54.47030         1.44903
C         20.97861         6.98785         4.32418
C         20.90320         8.16846         3.57422
C         19.63850         8.81005         3.28257
C         20.86107        10.82021         2.51181
C         19.55797        10.06552         2.68919
C         20.77777        12.03174         1.62791
C         19.54766        12.63321         1.44255
C         20.75573        14.69793         0.56489
C         19.48536        14.02539         0.99321
C         20.66523        15.83702        -0.36560
C         19.34792        16.54495        -0.74017
C         20.63410        18.83890        -0.74556
C         19.41131        18.08205        -0.69406
C         20.66136        20.20933        -0.33664
C         19.40158        20.86512        -0.11704
C         20.69441        22.97762        -0.46190
C         19.44446        22.33023         0.13834
C         20.65858        24.49550        -0.44318
C         19.37530        25.23580        -0.24695
C         20.70798        27.41309        -0.33761
C         19.39611        26.72680        -0.10833
C         20.67168        28.83731        -0.71588
C         19.43368        29.49485        -0.81023
C         20.72120        31.68743        -0.82610
C         19.45496        30.95122        -1.01724
C         20.71151        33.12109        -0.92414
C         19.48778        33.83680        -0.88767
C         20.69509        35.94889        -1.26084
C         19.48244        35.21941        -1.08264
C         20.67213        37.39961        -1.37096
C         19.49978        38.11291        -1.33364
C         20.72375        40.33842        -1.20443
C         19.47059        39.60076        -1.63397
C         20.74293        41.71361        -1.11485
C         19.48827        42.49909        -1.36347
C         20.67729        44.51993        -0.43245
C         19.49606        44.01966        -1.27633
C         20.71749        46.02735        -0.34495
C         19.50850        46.72707        -0.20053
C         20.70056        48.92740        -0.13321
C         19.49363        48.08979         0.17903
C         20.74418        50.29286         0.49234
C         19.62901        50.87677         1.31595
C         20.68720        53.09283         0.91252
C         19.51663        52.37335         1.08536
C         20.66914        54.58574         0.81492
C         19.43752        55.20510         1.41053
C         20.67377        57.26599         2.00515
C         19.47897        56.54144         1.87780
C         20.68421        58.49011         2.68541
C         23.55699         4.60364         5.63390
C         22.32128         5.18366         5.37115
C         23.43112         6.93702         4.06282
C         22.22957         6.36597         4.58659
C         23.35992         8.10707         3.25204
C         22.11297         8.70504         3.02410
C         23.26482        10.48132         1.57662
C         22.00657         9.89726         2.16911
C         23.26418        11.91295         1.18805
C         22.01251        12.63476         1.16108
C         23.20960        14.55850         0.18072
C         22.00348        13.91943         0.60062
C         23.13352        15.79785        -0.48047
C         21.84257        16.17859        -0.97347
C         23.11716        18.87330        -0.95409
C         21.85660        18.31291        -1.21622
C         23.13485        20.24488        -0.53980
C         21.91516        20.88272        -0.24252
C         23.22429        23.04723        -0.10980
C         21.92854        22.32867         0.18787
C         23.18119        24.50868         0.09099
C         21.94066        25.23881        -0.32632
C         23.22005        27.30090        -0.64097
C         21.93786        26.59413        -0.45509
C         23.17846        28.81387        -0.81962
C         21.90148        29.54560        -0.79267
C         23.19937        31.66967        -0.69993
C         21.93058        30.96478        -0.75936
C         23.16625        33.14652        -0.65653
C         21.92459        33.84988        -1.05192
C         23.23278        35.93517        -1.42544
C         21.92663        35.24524        -1.19541
C         23.27147        37.43634        -1.43180
C         21.95746        38.16108        -1.41984
C         23.22585        40.29041        -0.90933
C         21.92094        39.53807        -0.77606
C         23.22125        41.68786        -0.92376
C         21.99245        42.41151        -0.93108
C         23.30080        44.62995        -0.64610
C         21.97111        43.87633        -0.92269
C         23.27829        46.04381        -0.21150
C         21.97825        46.68080         0.03236
C         23.24444        48.92135        -0.08453
C         22.00143        48.20144         0.18499
C         23.13838        50.37482        -0.17887
C         21.90989        51.00927         0.36783
C         23.16387        53.10871         0.82934
C         21.93806        52.41464         0.69505
C         23.12721        54.52533         1.20581
C         21.95931        55.23943         1.22001
C         23.19285        57.34708         1.99036
C         21.94691        56.75584         1.35403
C         23.16434        58.55489         2.62732
C         21.89456        59.16297         3.00689
C         23.11097        60.86628         4.29689
C         21.89247        60.30874         3.80402
C         24.73905         5.17112         5.14155
C         25.89494         6.95529         3.86883
C         24.70068         6.34089         4.35373
C         25.86901         8.11369         3.08603
C         24.58131         8.70106         2.72443
C         25.78561        10.41147         1.39552
C         24.54072         9.82938         1.92832
C         25.73166        11.79561         0.77805
C         24.44963        12.53365         0.80989
C         25.66705        14.53280        -0.00449
C         24.47141        13.90055         0.37498
C         25.64851        15.97038        -0.34227
C         24.31773        16.66515        -0.57524
C         25.56079        18.79087        -1.02962
C         24.33685        18.10058        -1.01918
C         25.54184        20.22730        -0.94155
C         24.39810        20.93547        -0.58229
C         25.69676        23.05437        -0.15655
C         24.43750        22.38797        -0.32190
C         25.78648        24.40716         0.58840
C         24.44613        25.25745         0.39715
C         25.42841        27.57174         0.27199
C         24.41764        26.70085        -0.02007
C         25.57137        28.89828        -0.24874
C         24.42293        29.57429        -0.61817
C         25.72995        31.73768        -0.88965
C         24.40991        31.00423        -0.71762
C         25.71911        33.09017        -0.17758
C         24.44653        33.88695        -0.48372
C         25.82838        36.02680        -1.11568
C         24.52615        35.22243        -1.16382
C         25.63968        37.33366        -0.32788
C         24.46108        38.13838        -0.86857
C         25.64341        40.21355        -0.25144
C         24.42925        39.50785        -0.72745
C         25.68324        41.70064        -0.36173
C         24.54032        42.44080        -1.04231
C         25.71979        44.48582        -0.06213
C         24.48529        43.84405        -0.48585
C         25.71900        46.02094         0.01481
C         24.45123        46.76503        -0.11832
C         25.72203        48.92257        -0.03764
C         24.49589        48.23297        -0.07842
C         25.82357        50.44160        -0.21742
C         24.48522        51.17549        -0.05038
C         25.59351        52.91290         1.39044
C         24.39892        52.42896         0.67696
C         25.59026        54.34968         1.84275
C         24.43614        55.20043         1.42620
C         25.68406        57.17537         2.49793
C         24.48441        56.66142         1.77643
C         25.63767        58.42505         3.05495
C         24.44879        59.33075         2.84667
C         24.32403        60.38236         3.91383
C         27.07780         8.75845         2.68957
C         28.25313        10.65753         1.61681
C         27.08366         9.92485         1.91001
C         28.23401        11.94516         1.01239
C         26.98272        12.57174         0.66787
C         28.15686        14.64382        -0.01300
C         26.93231        13.88965         0.20827
C         28.12998        15.91385        -0.55794
C         26.85035        16.55715        -1.05629
C         28.02892        18.76825        -1.27964
C         26.85442        18.08817        -1.06999
C         28.03410        20.24391        -1.53199
C         26.73807        21.05909        -1.33691
C         28.31866        22.93097        -0.39526
C         26.89748        22.25507        -0.39502
C         28.34487        24.37523        -0.02122
C         27.09914        25.12643         0.23379
C         28.38051        27.26256        -0.10126
C         27.31855        26.45985         0.46916
C         28.21599        28.72290        -0.42359
C         26.91920        29.49646        -0.45710
C         28.18593        31.64742        -0.36311
C         26.97511        30.97002        -0.47583
C         28.20839        33.10058        -0.37311
C         26.99584        33.84550        -0.45795
C         28.23554        35.94520        -0.43541
C         27.00963        35.22703        -0.59838
C         28.21679        37.36973        -0.30476
C         26.95221        38.10646        -0.29715
C         28.16633        40.24955        -0.02147
C         26.92120        39.46903        -0.17962
C         28.18765        41.68499        -0.33646
C         27.00077        42.39625        -0.38700
C         28.24046        44.52357        -0.14580
C         27.00265        43.80947        -0.29144
C         28.24227        45.95618        -0.01178
C         27.00609        46.70127        -0.26115
C         28.26985        48.84277         0.27295
C         27.01607        48.22593        -0.22087
C         28.34455        50.37151         0.32074
C         26.98254        51.02468         0.57988
C         28.09270        52.87936         1.77388
C         26.89406        52.21387         1.23866
C         28.04606        54.22427         2.20529
C         26.87589        55.01639         2.17244
C         26.86522        56.35659         2.55156
C         29.42774        12.68169         0.82004
C         30.63282        14.70129         0.10263
C         29.42751        13.99669         0.30241
C         30.66039        15.99241        -0.47626
C         29.38245        16.56576        -0.94773
C         30.62295        18.76405        -1.26291
C         29.34202        18.04494        -1.34832
C         30.64568        20.18958        -1.60025
C         29.35676        20.96198        -1.55936
C         30.68842        23.08278        -1.22863
C         29.43192        22.38225        -1.15187
C         30.76082        24.46479        -0.90990
C         29.58398        25.16930        -0.36338
C         30.72884        27.37486        -1.01554
C         29.50241        26.62724        -0.54756
C         30.70235        28.82659        -0.55064
C         29.48050        29.50875        -0.37650
C         30.67985        31.65041        -0.36759
C         29.44565        30.92340        -0.31502
C         30.66455        33.06681        -0.42422
C         29.44794        33.78799        -0.37646
C         30.67171        35.93276        -0.07786
C         29.45791        35.23280        -0.31533
C         30.67000        37.32456        -0.00924
C         29.44354        38.03445        -0.13105
C         30.72086        40.21274        -0.37932
C         29.46536        39.50430         0.02185
C         30.74892        41.68328        -0.24148
C         29.47764        42.40142        -0.63571
C         30.76520        44.57265        -0.28835
C         29.45334        43.84303        -0.22944
C         30.68247        45.98554         0.22063
C         29.44227        46.65725         0.23257
C         30.56687        48.60451         1.30734
C         29.38716        48.08992         0.51256
C         30.52323        50.08320         1.56111
C         29.42560        50.85859         1.28895
C         29.31793        52.19616         1.77171
C         31.83917        16.72833        -0.62018
C         33.09130        18.83523        -0.98753
C         31.84095        18.10280        -1.01630
C         33.17936        20.20235        -1.18627
C         31.95567        20.93552        -1.57719
C         33.15940        23.08386        -1.29617
C         31.93089        22.40062        -1.40224
C         33.17777        24.49360        -1.16560
C         31.97149        25.16733        -0.91841
C         33.24037        27.31990        -0.70993
C         31.95528        26.60255        -0.44205
C         33.18131        28.80969        -0.92608
C         31.92314        29.53343        -0.50850
C         33.17728        31.69294        -0.42784
C         31.92556        30.93970        -0.40784
C         33.18490        33.05815        -0.49583
C         31.92421        33.85916        -0.67515
C         33.19338        35.94215         0.02680
C         31.92813        35.12925         0.19530
C         33.19844        37.29511         0.17608
C         31.92541        38.07964         0.39086
C         33.22781        40.25497        -0.06027
C         31.99879        39.45995        -0.24856
C         33.18922        41.62251         0.09668
C         31.91626        42.34042         0.03686
C         33.19483        44.53162         0.33395
C         31.87164        43.79960         0.44764
C         33.17019        45.91162         0.38273
C         31.92520        46.66826         0.49449
C         31.88392        48.00100         0.87498
C         34.39332        20.95972        -1.06179
C         35.64433        23.09606        -1.01631
C         34.42129        22.34764        -1.17854
C         35.70311        24.48196        -1.06010
C         34.45565        25.25168        -1.41506
C         35.69762        27.39065        -0.83389
C         34.43022        26.67217        -0.90878
C         35.71710        28.73943        -0.56080
C         34.43793        29.45446        -0.39710
C         35.75680        31.60817        -0.36366
C         34.44761        30.93923        -0.24691
C         35.76378        33.06661        -0.56080
C         34.45239        33.82645        -0.56441
C         35.65512        35.86026         0.17819
C         34.45622        35.24290        -0.14868
C         35.75926        37.33817         0.54879
C         34.49700        38.02819         0.03658
C         35.75592        40.26207         0.12041
C         34.49841        39.51947        -0.09339
C         35.68669        41.64164         0.25140
C         34.43949        42.37135         0.24588
C         34.40820        43.76348         0.32326
C         36.91474        25.23056        -0.92825
C         38.17167        27.37521        -0.81687
C         36.94736        26.62930        -0.86656
C         38.21258        28.74751        -0.55612
C         36.96186        29.42619        -0.04524
C         38.20939        31.66036        -0.28820
C         36.94786        30.93306        -0.25738
C         38.23895        33.06657        -0.12284
C         36.96817        33.75420        -0.07172
C         38.62334        36.15431         0.10222
C         36.80520        35.04455         0.38413
C         38.27319        37.45256        -0.27820
C         37.02784        38.09762         0.06899
C         36.96482        39.49055         0.00891
C         39.39662        29.51545        -0.66437
C         40.63670        31.66244        -0.64546
C         39.41949        30.91549        -0.50326
C         40.65226        33.03162        -0.57675
C         39.47758        33.81392        -0.28615
C         39.58642        35.22568        -0.38573
O         28.80943        50.75311        -0.93702
O         18.22793        13.99179        -0.98404
O         29.35130        24.69172         1.02415
O         16.41168        26.83269        -2.12406
O         22.31246         9.67588         0.77025
O         23.96435        35.24056        -2.51136
O         26.38601        27.18993         1.20134
O         29.37323        16.97371        -2.36881
O         11.72081        25.73276        -1.86624
O         25.35728        41.08951         0.91802
O         23.33265        27.88011        -1.97855
O         20.43078        54.86147        -0.73148
O          8.40703        32.52530         1.27750
O         27.83309        22.05090         0.68880
O         25.73219        10.58961        -0.06674
O         28.88476        39.98288         1.27164
O         20.19059        14.91738         1.93665
O         34.33680        30.04786         0.94852
O         31.38603        20.46638        -2.84878
O         34.61988        38.61564        -1.28580
O         18.71547        42.10234        -2.54211
O         21.96547        57.27434         0.01385
O         35.19545        33.56337        -1.82293
O         37.82472        35.62738         1.14867
O         25.72458        45.22538         1.23109
O         31.36139        39.61069        -1.55341
O         12.62337        38.26264        -2.44061
O         18.09921        39.84094         0.39568
O         19.79682        24.90183        -1.59936
O         24.77799        56.19683         0.41386
O         27.51573        28.91931        -1.71217
O         25.05260        16.72477         0.74349
O         21.83213        17.14694        -1.98129
O         28.62677        20.63620        -2.81969
O         10.42967        36.77215        -2.39440
O         16.26625        33.53925         0.95478
O         22.66424        44.50260        -2.02682
O         16.18394        18.37393        -1.84021
O         33.13507        28.79389        -2.35781
O         19.05199        22.70510         1.49044
O         27.06304        47.48252        -1.49616
O         18.71822        31.48009        -2.21815
O         17.68895        47.80354         1.84182
O         25.25508        53.29698         2.79209
O         18.02785        36.55257        -2.52588
O         16.77705        21.40698         1.43978
O         21.95229        47.35590         1.36404
O         17.56340        50.30196         2.48517
O         17.48873        46.87346        -1.57239
O         23.52543        24.94460         1.49784
O         23.55058        33.80144         0.66509
O         11.68519        30.10544        -2.09314
O         23.71829        51.10085        -1.29181
O         22.71697        38.06396        -2.65213
O         20.11360        27.25598         1.03438
O         12.08497        39.04497         1.04705
H         12.32468        39.80467         1.61891
O         20.45719        44.01688         0.91724
H         20.85973        44.63912         1.56038
O         26.71083        16.15082        -2.44792
H         27.55974        16.38793        -2.89625
O         20.69418        49.15463        -1.58251
H         20.43247        48.32013        -2.02817
O         25.30473        36.95268         1.03110
H         25.23808        37.76631         1.57489
O         19.70710        44.53671        -2.60511
H         19.16994        43.98346        -3.21678
O         25.86819        24.08248         1.98664
H         24.95329        24.14696         2.35279
O         19.31052        39.68141        -3.06785
H         20.09956        39.28462        -3.49300
O         31.89006        34.67722         1.57546
H         32.07294        35.44073         2.16155
O         36.95254        29.21788         1.40621
H         36.05325        29.49178         1.71251
O         18.38052        16.67893         1.54361
H         19.17670        16.28408         1.98396
O         10.87619        24.83425         1.54021
H         10.17116        24.35639         2.02656
O         11.95217        42.70174        -2.22457
H         12.75967        43.20695        -2.46089
O         20.08595        50.73845         2.70242
H         19.27144        50.70550         3.25880
O         25.76655        32.80167         1.23756
H         24.91934        33.12527         1.63086
O         21.21195        11.34209         3.83948
H         20.54192        12.01475         4.08544
O         15.69252        40.31214         1.21167
H         16.62319        40.37182         1.53231
O         34.51752        25.40876        -2.87855
H         33.93321        26.15972        -3.12460
O         13.36751        35.82089        -3.03920
H         12.82839        36.54574        -3.43527
O         31.88685        34.32307        -2.05050
H         32.13139        33.57994        -2.64109
O         26.36456        21.64792        -2.61038
H         27.09367        21.45089        -3.24930
O         25.87097        31.99518        -2.31062
H         26.03142        31.14177        -2.76776
O         30.83718        27.39303        -2.44669
H         31.66111        27.93983        -2.65531
O         10.79736        20.28089        -0.50046
H         11.00112        20.33313        -1.45669
O         30.37814        48.04268         2.67029
H         30.42862        47.06434         2.59720
O         26.21174        50.58649        -1.60178
H         25.38976        50.57999        -2.14342
O         31.82281        38.35527         1.82459
H         31.48282        37.55506         2.27636
O         31.49219        43.81843         1.85274
H         32.15710        43.30210         2.35467
O         26.19746        36.41404        -2.45334
H         25.49378        36.08360        -3.06395
O         31.82433        26.58445         1.00905
H         31.14565        25.92055         1.26301
O         18.96862        16.17253        -2.06192
H         18.66203        15.21669        -2.01306
O         21.65559        55.11285        -1.36345
H         21.89823        56.05437        -1.03011
O         21.74791        22.41320         1.62436
H         22.52527        22.00750         2.06083
O         18.03517        25.07810         1.70428
H         18.54713        24.44061         2.25496
O         29.54912        42.42073        -2.11838
H         30.30478        43.01744        -2.34802
O         21.76489        39.25102         0.66091
H         21.69874        40.10754         1.13461
O         24.87167        42.53008        -2.45544
H         24.17995        43.08857        -2.87826
O         11.13756        28.94026         1.33988
H         10.40575        28.55060         1.86424
O         13.80561        34.08149         0.87217
H         14.57385        34.22086         1.47462
O         35.74507        37.42189         1.99584
H         36.54561        36.94593         2.31295
O         13.62642        33.16141        -2.62682
H         12.92276        32.71535        -3.14249
O         31.17671        44.62977        -1.70127
H         30.64158        45.32391        -2.14303
O         20.75366        22.57337        -1.84670
H         20.26537        23.24234        -2.37972
O         18.68521        32.89437         1.07132
H         17.86237        32.93093         1.61551
O         24.71284        60.05665         1.59462
H         24.49587        59.45182         0.85148
H          4.82216        31.26035        -0.00801
H          4.83189        33.70774        -0.07085
H          7.25464        26.96679        -0.24516
H          6.04973        29.08801        -0.26625
H          6.06169        35.85779        -0.41580
H          7.31599        37.95822        -0.30224
H          9.77394        22.49805         0.09195
H          8.45589        24.77017        -0.15250
H          8.56679        40.07523        -0.11533
H          9.78663        42.22543        -0.50904
H         12.21316        18.26125         0.08946
H         11.62913        20.74648         1.31464
H         11.08945        44.35562         0.05666
H         12.32112        46.44536         0.43441
H         14.80431        14.15177         1.00078
H         13.52076        16.11355         0.30712
H         13.53981        48.57647         0.63629
H         14.81477        50.75074         0.78316
H         17.38599        10.20411         2.63777
H         16.14263        12.25230         2.01680
H         16.09212        52.90331         1.25358
H         17.32561        54.96375         1.76031
H         20.06008         6.53543         4.72716
H         18.71295         8.27620         3.55046
H         18.54612        56.98421         2.26530
H         19.73588        58.89863         3.07180
H         23.60999         3.69041         6.24306
H         21.40254         4.73322         5.77330
H         23.05260        61.69022         5.02323
H         20.93489        60.74789         4.11961
H         25.70812         4.70447         5.36931
H         26.86464         6.50758         4.13444
H         26.52561        58.82815         3.56714
H         25.24837        60.81687         4.32344
H         28.03429         8.34480         3.04461
H         29.22263        10.25214         1.94524
H         28.98439        54.69372         2.53939
H         27.79818        56.81615         2.91283
H         30.39072        12.21192         1.07116
H         31.58332        14.23019         0.39524
H         31.27125        50.46657         2.27650
H         30.22144        52.71606         2.12754
H         32.79351        16.26686        -0.32542
H         34.00204        18.27004        -0.73751
H         34.11652        46.47369         0.40879
H         32.81789        48.53525         1.10761
H         35.32969        20.41695        -0.86020
H         36.56848        22.52616        -0.82771
H         36.61745        42.21990         0.35933
H         35.36318        44.31082         0.36628
H         37.86397        24.67621        -0.84954
H         39.11337        26.84886        -1.04307
H         38.96018        38.01777        -0.92754
H         37.90409        40.04319        -0.15451
H         40.33625        29.00378        -0.92830
H         41.57092        31.11460        -0.83803
H         41.60242        33.56645        -0.72436
H         40.48124        35.62145        -0.89271
