         349
 CSIRO Nanostructure Databank - Neutral Graphene Oxide Data Set
C          1.25730         2.22277        -0.94431
C          1.29669         3.54125        -0.50310
C          2.39688         1.43106        -1.09321
C          2.58103         4.23626        -0.25120
C          1.37175         6.14579         0.98548
C          1.41646         7.50099         1.14817
C          2.59883         5.30320         0.95116
C          2.65534         8.19593         1.28673
C          1.45388        10.41322         1.89557
C          1.45862        11.74753         1.75344
C          2.69084         9.58693         1.80554
C          2.70002        12.50242         1.31915
C          1.54729        14.72651         1.78353
C          1.55745        16.12967         1.89489
C          2.71713        14.00011         1.57933
C          2.74219        16.85131         1.73646
C          2.76794        18.28719         1.80619
C          3.66190         1.84679        -0.49798
C          3.72358         3.28366         0.05341
C          4.91700         1.20914        -0.90552
C          5.05180         3.94074         0.25052
C          3.87117         6.10428         0.80619
C          3.86426         7.49461         1.05656
C          5.08659         5.42685         0.42074
C          5.15990         8.20689         1.14960
C          3.99566        10.32821         1.83699
C          3.95134        11.83239         1.86890
C          5.20391         9.69206         1.25352
C          5.23950        12.57473         1.77543
C          3.96460        14.69494         1.44597
C          3.96929        16.14455         1.47250
C          5.20253        14.00393         1.38245
C          5.15497        16.86082         1.28717
C          3.93379        18.97893         1.64490
C          5.17447        18.29166         1.38680
C          6.13976         1.85309        -0.87958
C          6.28705         3.21254        -0.28330
C          7.32266         1.23676        -1.39047
C          7.37599         4.06132        -0.74209
C          6.28774         6.09614         0.26198
C          6.41120         7.49329         0.71266
C          7.58525         5.37753        -0.04018
C          7.56613         8.29416         0.24712
C          6.34116        10.39750         1.02691
C          6.53040        11.76950         1.66875
C          7.50362         9.81038         0.24746
C          7.69447        12.56191         1.11176
C          6.42446        14.68897         1.17505
C          6.38382        16.14752         0.79129
C          7.65131        14.01423         1.12557
C          7.66340        16.88940         1.07387
C          6.37527        18.99239         1.24735
C          7.63483        18.30686         1.13993
C          8.48852         1.97965        -1.64039
C          8.39174         3.46043        -1.57076
C          9.72185         1.38847        -1.95798
C          9.68178         4.28970        -1.79516
C          8.66023         6.26512        -0.64438
C          8.64478         7.68741        -0.34298
C          9.71653         5.69356        -1.32069
C          9.73357         8.55524        -0.88762
C          8.87768        10.38454         0.69035
C          8.83704        11.89174         0.77412
C          9.94557         9.90687        -0.29213
C         10.16876        12.57377         0.83924
C          8.89176        14.75525         0.97753
C          8.89742        16.20775         1.06540
C         10.08002        14.07159         0.76640
C         10.13187        16.92792         1.14357
C          8.85061        19.01631         1.08426
C         10.10425        18.37186         1.06465
C         10.94699         2.12769        -1.98770
C         10.93346         3.56248        -1.87926
C         12.18640         1.46272        -1.96016
C         12.14136         4.30033        -1.80941
C         10.91877         6.42788        -1.67049
C         10.84534         7.90428        -1.66465
C         12.09941         5.75436        -1.88738
C         12.10447         8.66947        -1.93718
C         11.03430        10.67447        -0.63966
C         11.22636        12.01043        -0.08338
C         12.10193        10.13070        -1.53925
C         12.38615        12.74332        -0.22351
C         11.31282        14.78334         0.66969
C         11.35297        16.15804         1.03344
C         12.50565        14.10481         0.29486
C         12.63410        16.71126         1.23381
C         11.25402        19.19796         0.74155
C         12.56421        18.84993         1.02826
C         13.39764         2.17410        -1.70111
C         13.37632         3.62709        -1.72370
C         14.57726         1.53059        -1.34372
C         14.61394         4.34896        -1.67279
C         13.35917         6.41596        -2.42828
C         13.37614         7.93924        -2.28057
C         14.61487         5.84999        -1.76640
C         14.70799         8.61051        -2.10646
C         13.42138        10.84057        -1.59555
C         13.51344        12.22616        -1.02635
C         14.68862        10.02471        -1.63487
C         14.82985        12.91687        -0.97115
C         13.73731        14.80924         0.28471
C         13.82000        16.16577         0.69730
C         14.97380        14.12010        -0.10433
C         15.02160        16.98996         0.47533
C         13.79215        19.26867         0.45325
C         14.96797        18.47613         0.40201
C         15.64852         2.34947        -0.68920
C         15.78762         3.72168        -1.30312
C         16.94158         1.66733        -0.41194
C         17.05524         4.43492        -1.30232
C         15.90255         6.41856        -2.40230
C         15.89482         7.93462        -2.22431
C         17.13739         5.74355        -1.79384
C         17.20160         8.64786        -2.38956
C         16.02720        10.73417        -1.47901
C         16.06740        12.20012        -1.33466
C         17.20300        10.09975        -2.09171
C         17.24127        12.91890        -1.43564
C         16.24785        14.90406        -0.20484
C         16.18383        16.36038         0.05317
C         17.21606        14.41825        -1.28697
C         17.44091        17.10120        -0.18790
C         16.14473        19.18405         0.04187
C         17.38722        18.57756        -0.21486
C         18.08834         2.41395        -0.21692
C         18.20489         3.78024        -0.71283
C         19.19462         1.85056         0.49697
C         19.42355         4.45449        -0.57036
C         18.44703         6.36464        -2.01816
C         18.52833         7.82938        -2.39702
C         19.66540         5.70232        -1.30765
C         19.82615         8.49300        -2.08078
C         18.25485        10.95427        -2.38954
C         18.43976        12.26318        -1.84798
C         20.04527         9.81653        -2.32656
C         19.75147        12.87932        -1.75327
C         18.59417        15.00399        -1.19758
C         18.64407        16.43135        -0.78415
C         19.75048        14.34100        -1.52709
C         19.73073        17.26962        -1.42007
C         18.57092        19.28913        -0.42203
C         19.80354        18.64562        -0.77626
C         20.32120         2.59909         0.79296
C         20.48839         3.91613         0.22186
C         21.35480         2.06306         1.63440
C         21.70820         4.60539         0.39144
C         20.89691         6.45183        -1.02660
C         21.10836         7.69164        -1.85492
C         21.93325         5.88665        -0.27375
C         22.28631         8.53106        -1.37931
C         20.92499        10.62693        -1.40715
C         20.93614        12.13816        -1.67265
C         22.24813         9.88756        -1.27128
C         22.23971        12.85273        -1.61836
C         21.00684        15.10353        -1.52199
C         21.02454        16.46811        -1.39941
C         22.28518        14.36011        -1.62138
C         22.30506        17.20020        -1.39750
C         21.00510        19.28965        -0.63452
C         22.28890        18.66803        -0.98752
C         22.51024         2.75200         1.88390
C         22.73452         4.02438         1.21950
C         23.54976         2.06169         2.75254
C         23.99079         4.63593         1.25811
C         23.26747         6.45278        -0.29802
C         23.55745         7.71144        -1.18957
C         24.27897         5.71720         0.35141
C         24.71068         8.59452        -0.71259
C         23.38786        10.69274        -0.76925
C         23.40553        12.17813        -0.95714
C         24.66895        10.00078        -0.53327
C         24.69400        12.90659        -0.83928
C         23.53305        15.06597        -1.21888
C         23.54767        16.43184        -1.17178
C         24.73753        14.28305        -0.93912
C         24.84141        17.21309        -1.11415
C         23.51247        19.23080        -0.40818
C         24.71610        18.56014        -0.41923
C         24.84354         2.83535         2.94379
C         25.04861         4.13321         2.17723
C         26.04566         2.11019         3.38397
C         26.44832         4.53965         1.97170
C         25.68459         5.97744         0.17525
C         25.98514         8.01538        -0.51868
C         26.69201         5.60408         1.03007
C         26.96280         8.56308         0.28570
C         25.81611        10.71320        -0.19893
C         25.82606        12.20614        -0.10604
C         27.02824        10.05599         0.41452
C         27.20336        12.77470        -0.40565
C         25.96914        14.98495        -0.62554
C         26.00208        16.39502        -0.59780
C         27.19070        14.22819        -0.44052
C         27.14188        17.08626        -0.14020
C         25.90088        19.18696         0.05327
C         27.12965        18.50318         0.08999
C         27.31275         2.64781         3.26784
C         27.51730         3.87150         2.51787
C         28.48532         2.00722         3.83822
C         28.92126         4.19954         2.02639
C         27.98149         6.26852         1.01453
C         28.08420         7.78626         0.91042
C         29.06658         5.63232         1.56417
C         29.35835         8.16804         0.15361
C         28.38302        10.56911        -0.15609
C         28.39521        12.02593        -0.43746
C         29.46038         9.68441        -0.13633
C         29.64611        12.77082        -0.65201
C         28.38143        14.92388        -0.27574
C         28.36365        16.33182         0.11978
C         29.63860        14.24528        -0.56574
C         29.68136        17.11692         0.29323
C         28.35550        19.21026         0.30800
C         29.59411        18.58934         0.26207
C         29.72533         2.58138         3.77101
C         29.97601         3.78169         3.01817
C         31.14977         4.49946         3.10800
C         30.35711         6.30029         1.62701
C         30.55281         7.54194         0.87894
C         31.36565         5.70366         2.37538
C         31.78880         8.08066         0.63289
C         30.81235         9.96706        -0.59145
C         30.88771        12.25071        -1.00039
C         31.90741         9.22287        -0.22478
C         32.12640        12.93428        -0.77160
C         30.96673        15.04083        -0.45435
C         30.96117        16.47660        -0.05466
C         32.17325        14.23149        -0.34772
C         32.08016        17.26101        -0.17335
C         30.82338        19.32495         0.19677
C         32.02024        18.67951         0.01830
O          5.95840         3.26473         1.16766
O         16.02043        14.01104         0.91923
O         15.36713        10.07858        -0.32282
O         18.56174        16.59022         0.66491
O         17.86109         8.19370        -3.64161
O         19.39540         5.53573        -2.76983
O         26.10671         6.68606        -0.95844
O          8.69930         4.10045        -2.86349
O         19.26001        10.50782        -3.24844
O         28.99153        16.52987         1.44912
O         12.54820         8.52602        -3.33155
O         24.63012         4.12918         3.59405
O         22.52337        13.58034        -2.85808
O          3.48638         2.19971         0.94740
O         12.50430        10.90170        -2.71882
O         12.72654        17.85411         2.01824
O         30.28395        14.87704        -1.74747
O          6.08345         7.63446         2.14924
O         22.98967        11.59175         0.35808
O         13.92373        13.17605        -2.09407
O          3.49830         9.69127         3.05343
O          9.70796         8.51205        -2.36925
O         22.41133        18.25575        -2.42771
O          4.53430        12.38734         3.07462
O         31.03641        10.97033        -1.53647
O         21.44959         7.24934        -3.19625
H         20.78663         6.56191        -3.45317
O         19.39077        17.46597        -2.81779
H         20.15683        17.91299        -3.24069
O          6.25657        16.13674        -0.68806
H          6.22561        17.07340        -0.97907
O         14.56062         6.33613        -0.39471
H         15.11394         5.75335         0.16677
O         28.26758         8.17665         2.29133
H         27.85969         9.06296         2.44503
O         23.93765         7.21154        -2.49081
H         24.79842         6.74517        -2.38024
O         16.64203        14.97097        -2.51373
H         17.22280        14.73084        -3.26649
O         23.84025         0.76589         2.20245
H         24.11674         0.87435         1.26965
O          9.19658         9.87489         2.01358
H          8.47157        10.17655         2.61719
O         15.11021         2.62209         0.69466
H         15.85991         2.95908         1.23170
O         29.12240         3.33761         0.84787
H         28.56061         3.69544         0.12778
O         25.15259        17.52019        -2.51182
H         24.34503        17.95017        -2.88423
O          8.12664         4.99936         1.28118
H          7.44025         4.42736         1.70735
O         25.54261        12.55017         1.32006
H         24.60895        12.26366         1.47401
O         10.64315        12.27568         2.20670
H         10.40510        11.33243         2.39095
O         15.95642         6.10860        -3.80384
H         16.68397         6.64824        -4.19373
O          2.63884         4.48719         2.14441
H          2.74030         5.08205         2.91610
O         20.29273        10.49384        -0.08390
H         20.91299        10.90798         0.56009
O         13.37327         6.09808        -3.82767
H         12.82917         6.78022        -4.28308
O          7.26456        10.24262        -1.12149
H          7.93904         9.83777        -1.71049
O          6.96517        11.43793         3.02800
H          6.15147        11.45095         3.59086
O         27.04315        10.44066         1.83071
H         26.61964        11.33831         1.91186
O          2.92252         5.03569        -1.41623
H          2.50298         4.63704        -2.20707
O          2.80671        12.32959        -0.12941
H          2.09020        12.84669        -0.55346
O         29.27419         7.52671        -1.14459
H         30.11695         7.69104        -1.61847
H          0.29018         1.81705        -1.27766
H          0.37795         4.14337        -0.55374
H          2.34286         0.47633        -1.63447
H          0.39816         5.63547         0.99876
H          0.47447         8.05963         1.24567
H          0.51408         9.90513         2.16204
H          0.50975        12.29229         1.86872
H          0.58133        14.21055         1.87256
H          0.61493        16.66321         2.08329
H          1.82619        18.82074         2.00158
H          4.84773         0.23437        -1.41250
H          3.94547        20.07651         1.71333
H          7.31749         0.15366        -1.58289
H          6.37348        20.09076         1.30530
H          9.77413         0.29214        -2.03913
H          8.81920        20.11532         1.04573
H         12.20913         0.36274        -1.98362
H         11.06077        20.10576         0.14985
H         14.62866         0.43228        -1.30448
H         13.84531        20.27186         0.00162
H         16.91078         0.62692        -0.05307
H         16.08256        20.28143        -0.01843
H         19.10095         0.82837         0.89231
H         18.57651        20.37865        -0.26592
H         21.20992         1.06513         2.07350
H         21.03589        20.28140        -0.15744
H         23.10067         1.87475         3.76352
H         23.44492        20.21695         0.07686
H         25.91394         1.10049         3.80046
H         25.85834        20.24199         0.36277
H         28.33868         1.08612         4.42145
H         28.31145        20.30778         0.37800
H         30.56314         2.13043         4.32548
H         31.94720         4.14811         3.78066
H         32.34778         6.18960         2.46348
H         32.70559         7.62326         1.03023
H         32.89800         9.51754        -0.59563
H         33.04542        12.33440        -0.82917
H         33.10380        14.67096         0.03694
H         33.04506        16.80906        -0.44423
H         30.78704        20.42160         0.26857
H         32.95190        19.25781        -0.04846
