         640
 CSIRO Nanostructure Databank - Neutral Graphene Oxide Data Set
C         23.07609        27.79431         0.96418
C         23.09724        29.02920         0.32590
C         23.56069        30.98227        -2.01216
C         23.84815        31.99307        -2.93396
C         24.34613        35.75191        -4.43871
C         24.22824        37.13373        -4.34873
C         23.64031        39.90922        -3.11298
C         23.52195        41.21209        -2.77988
C         23.35806        44.15014        -2.29916
C         23.26172        45.48180        -2.07582
C         25.42539        25.02587         1.88764
C         24.29445        25.76846         1.78834
C         25.48249        27.62287         0.66574
C         24.26690        27.04762         1.10339
C         25.53477        28.98554         0.28848
C         24.31544        29.66171         0.00063
C         25.28671        31.88462        -0.61285
C         24.32329        30.88355        -0.83650
C         25.69752        32.86055        -1.54912
C         24.91256        32.88584        -2.72742
C         26.08593        35.74293        -2.70135
C         25.23825        35.06941        -3.59380
C         26.07032        37.17162        -2.75011
C         25.08929        37.85323        -3.51355
C         26.07352        40.05800        -2.78539
C         24.98504        39.35874        -3.54755
C         25.98146        41.44073        -2.64039
C         24.68537        42.09842        -2.73152
C         25.85993        44.30937        -2.77747
C         24.60580        43.47388        -2.58572
C         25.74375        45.68317        -2.17369
C         24.43142        46.40225        -2.29108
C         25.55145        48.31202        -1.12849
C         24.41327        47.64430        -1.43928
C         27.90563        23.30589         1.65985
C         27.90740        24.64475         1.27723
C         26.61852        25.36833         1.09044
C         27.98534        27.32076        -0.01963
C         26.65591        26.74433         0.46928
C         28.03046        28.82399         0.06158
C         26.86276        29.58819         0.13915
C         28.15591        31.63018        -0.40297
C         27.02342        31.00129         0.12388
C         28.11464        33.01950        -0.86817
C         26.94879        33.61979        -1.37842
C         28.25672        35.81208        -1.45088
C         26.90790        35.12921        -1.56922
C         28.29048        37.21100        -1.61185
C         27.15775        37.92325        -2.14402
C         28.27456        40.09525        -1.72044
C         27.18650        39.33752        -2.25712
C         28.30261        41.49974        -1.79478
C         27.13442        42.20179        -2.23377
C         28.31945        44.33122        -2.05871
C         27.12651        43.60426        -2.32247
C         28.31970        45.80324        -2.13608
C         26.93331        46.51628        -2.13278
C         28.04519        48.58665        -1.33640
C         26.86094        47.85370        -1.54210
C         28.01608        49.97184        -0.94020
C         30.34268        23.19881         1.57436
C         29.09906        22.58387         1.78276
C         30.37669        24.59323         1.25768
C         29.15324        25.31245         1.04409
C         30.43949        27.35063         0.55256
C         29.20392        26.66894         0.61333
C         30.50025        28.74622         0.19418
C         29.29305        29.47796        -0.03150
C         30.62622        31.50900        -0.47527
C         29.35975        30.86889        -0.33670
C         30.69493        32.95309        -0.91035
C         29.38063        33.70936        -0.90074
C         30.68677        35.82542        -0.84846
C         29.43100        35.10561        -1.06213
C         30.66483        37.26669        -0.89414
C         29.47266        37.92878        -1.21807
C         30.68837        40.18387        -0.86011
C         29.37472        39.38337        -1.08865
C         30.71887        41.56865        -1.29849
C         29.52542        42.23821        -1.56442
C         30.72933        44.41333        -1.43392
C         29.51878        43.67314        -1.71711
C         30.69451        45.84622        -1.34787
C         29.46681        46.56116        -1.62771
C         30.54202        48.76433        -1.27101
C         29.33353        47.94221        -1.44142
C         30.45819        50.15643        -0.81868
C         29.14731        50.70788        -0.68558
C         32.79330        20.32928         1.77565
C         31.60566        21.04960         1.79912
C         32.83247        23.13122         1.49115
C         31.58906        22.44927         1.63507
C         32.85632        24.54861         1.30453
C         31.62667        25.26941         1.13677
C         32.89645        27.38019         0.87416
C         31.65606        26.66020         0.84765
C         32.92151        28.76090         0.62060
C         31.73983        29.43734         0.20434
C         33.12376        31.49363        -0.44166
C         31.79298        30.82046        -0.18321
C         33.09213        32.97286        -0.19500
C         31.77982        33.69040        -0.10435
C         33.09175        35.86870        -0.29021
C         31.85849        35.15543        -0.48690
C         33.09482        37.29263        -0.34928
C         31.88245        38.00679        -0.62533
C         33.14417        40.14383        -0.60373
C         31.91993        39.40729        -0.72661
C         33.18329        41.51984        -0.86523
C         32.04085        42.24311        -1.54811
C         33.11445        44.44982        -0.87221
C         31.96106        43.73302        -1.24121
C         33.05210        45.85201        -0.62391
C         31.84946        46.54463        -0.94189
C         32.95589        48.76841        -0.38769
C         31.86983        48.01391        -1.00378
C         32.89838        50.14833        -0.36199
C         31.65448        50.86583        -0.55404
C         32.78071        52.99260         0.05826
C         31.65328        52.27887        -0.29134
C         35.30806        18.80644         1.51074
C         35.28099        20.22178         1.51754
C         34.03866        20.96985         1.61419
C         35.30400        23.08837         1.41662
C         34.05931        22.39317         1.51097
C         35.32563        24.51088         1.34093
C         34.09590        25.24421         1.26000
C         35.36116        27.36118         1.16113
C         34.12422        26.66349         1.12548
C         35.40711        28.78642         1.07925
C         34.12148        29.57384         1.02978
C         35.47212        31.59865         0.51089
C         34.28620        30.88705         0.30663
C         35.55981        33.00896         0.27051
C         34.38574        33.70475        -0.38593
C         35.51000        35.87367         0.20052
C         34.31590        35.17677        -0.08139
C         35.50411        37.30249         0.20691
C         34.30851        38.01032        -0.11637
C         35.52743        40.14287         0.08467
C         34.33570        39.42998        -0.22405
C         35.58108        41.56360        -0.10391
C         34.45587        42.21277        -0.75768
C         35.53617        44.48580        -0.11259
C         34.42852        43.79716        -0.76536
C         35.40587        45.89036         0.14168
C         34.20857        46.55509        -0.15824
C         35.40735        48.74377         0.13641
C         34.06808        47.99312         0.29345
C         35.24574        50.21176         0.59992
C         34.18465        50.93745        -0.23276
C         35.26526        53.08365         0.38211
C         34.06205        52.38707         0.17411
C         35.31710        54.51305         0.47540
C         37.72859        18.76553         1.18749
C         36.49040        18.10170         1.34971
C         37.73185        20.18983         1.22606
C         36.51213        20.91806         1.38698
C         37.76394        23.05079         1.33527
C         36.53233        22.35607         1.38447
C         37.79647        24.48247         1.35368
C         36.56589        25.20900         1.32036
C         37.82342        27.33096         1.35496
C         36.58832        26.63361         1.26807
C         37.85032        28.75869         1.41113
C         36.60972        29.47780         1.21018
C         37.82170        31.62012         1.28370
C         36.64321        30.92131         1.05126
C         37.89403        33.03312         1.06592
C         36.71889        33.72765         0.58786
C         37.91117        35.88170         0.83826
C         36.73067        35.16732         0.51584
C         37.91316        37.31024         0.83047
C         36.69486        38.02488         0.52396
C         37.81718        40.19203         1.11674
C         36.67332        39.43163         0.51907
C         37.89971        41.63430         0.69409
C         36.73584        42.31532         0.23190
C         37.84937        44.44576         0.74743
C         36.71247        43.75825         0.22976
C         37.73811        45.86331         1.11563
C         36.54103        46.63021         0.70448
C         37.72563        48.76694         1.25360
C         36.53289        47.99355         0.82263
C         37.73797        50.27080         1.05968
C         36.54249        50.97960         0.58618
C         37.77678        53.09531         0.64575
C         36.53061        52.36070         0.50677
C         37.76934        54.50241         0.64360
C         36.50389        55.18547         0.57704
C         40.22649        15.94881         0.85588
C         39.04193        16.62018         1.04115
C         40.15887        18.76578         0.70536
C         38.97462        18.04684         0.97688
C         40.16274        20.20767         0.77084
C         38.96397        20.90361         1.09112
C         40.23082        23.00424         1.21532
C         38.99242        22.32241         1.21610
C         40.27284        24.43908         1.40788
C         39.03083        25.17521         1.40460
C         40.26086        27.30885         1.66465
C         39.04880        26.60630         1.46152
C         40.28357        28.72629         1.80474
C         39.05230        29.44356         1.66809
C         40.27694        31.64070         1.87430
C         38.95736        30.92153         1.99573
C         40.30966        32.99934         1.64018
C         39.09768        33.73596         1.29276
C         40.32612        35.88222         1.38699
C         39.12806        35.16729         1.16902
C         40.34826        37.32586         1.30649
C         39.12078        38.03440         1.05697
C         40.32278        40.18156         1.19481
C         39.12825        39.45743         1.05697
C         40.32850        41.62672         1.15191
C         39.08809        42.33635         0.92561
C         40.29930        44.49639         1.13611
C         39.06670        43.76965         0.95811
C         40.30303        45.90478         1.19509
C         39.03933        46.62812         1.37026
C         40.23323        48.79603         1.20878
C         39.04405        48.09482         1.26135
C         40.24156        50.25494         1.10120
C         39.02896        50.96637         0.95434
C         40.25141        53.08672         0.83119
C         39.01820        52.37588         0.78697
C         40.24385        54.51839         0.80314
C         39.01321        55.23082         0.73116
C         40.23330        57.34386         0.82674
C         39.04527        56.65531         0.74281
C         42.65498        15.97787         0.31548
C         41.43046        16.65260         0.55148
C         42.57736        18.77751         0.10104
C         41.39376        18.07272         0.46109
C         42.51507        20.27244        -0.11953
C         41.36248        20.92777         0.58974
C         42.69910        22.97608         0.98801
C         41.43207        22.29502         0.93611
C         42.77273        24.30148         1.70899
C         41.48272        25.08817         1.59878
C         42.79280        27.26244         2.05072
C         41.48264        26.52503         1.90947
C         42.77354        28.74443         1.93337
C         41.53575        29.42278         1.98725
C         42.79905        31.62716         2.25892
C         41.47163        30.88426         2.41901
C         42.78949        33.05903         1.89797
C         41.56766        33.73766         1.69635
C         42.78521        35.85649         1.69140
C         41.55885        35.15399         1.60069
C         42.71967        37.31012         2.09817
C         41.53502        38.05343         1.52173
C         42.75760        40.23336         1.53596
C         41.55808        39.47900         1.42724
C         42.78600        41.63731         1.31684
C         41.53400        42.34297         1.20201
C         42.75736        44.49618         1.06943
C         41.54206        43.78497         1.13500
C         42.74657        45.92947         1.00142
C         41.51104        46.63943         1.11483
C         42.72267        48.77048         1.13506
C         41.50788        48.07557         1.16213
C         42.74034        50.24302         1.47517
C         41.46777        50.96463         1.09763
C         42.73605        53.09284         0.98183
C         41.48066        52.37002         0.96998
C         42.72644        54.52412         0.95740
C         41.48153        55.22988         0.89085
C         42.70465        57.35758         0.98939
C         41.47344        56.65129         0.90244
C         43.78881        16.67942        -0.05105
C         44.91521        18.89199        -0.77517
C         43.75880        18.08954        -0.18554
C         44.99012        20.26184        -0.12058
C         43.84042        20.95106         0.12681
C         45.10719        23.06520         0.53083
C         43.86962        22.33360         0.59205
C         45.11715        24.48073         0.82835
C         43.98633        25.11511         1.33371
C         45.22788        27.30927         1.32261
C         44.11651        26.49717         1.94284
C         45.22298        28.71883         1.46225
C         44.02604        29.41311         1.83317
C         45.30453        31.60888         1.64284
C         44.08517        30.87023         2.03351
C         45.29486        33.03681         1.67193
C         44.02369        33.74297         1.76286
C         45.25465        35.88021         1.38228
C         43.99819        35.15505         1.66360
C         45.26343        37.37376         1.47572
C         44.04008        38.07179         1.96974
C         45.29094        40.23306         1.41486
C         44.03640        39.55277         1.77283
C         45.27802        41.62684         1.18887
C         44.01472        42.33951         1.18758
C         45.20831        44.45701         0.80676
C         44.01777        43.77187         1.02959
C         45.18759        45.90913         0.58009
C         43.94812        46.66177         0.83216
C         45.19626        48.81912         0.89404
C         43.95962        48.07376         0.95475
C         45.17370        50.23755         0.86348
C         43.98659        50.95897         1.01981
C         45.20923        53.12314         0.89953
C         43.96573        52.38795         0.95321
C         45.20396        54.54378         1.01007
C         43.94681        55.25600         1.01572
C         43.90077        56.67788         1.04140
C         47.42439        18.78106        -0.70274
C         46.23902        18.17142        -0.82827
C         47.55678        20.20282        -0.28246
C         46.29305        20.93241         0.08061
C         47.49245        23.12518        -0.09025
C         46.29874        22.41063         0.14834
C         47.48940        24.55277         0.10940
C         46.34341        25.21571         0.60698
C         47.57313        27.36932         0.58577
C         46.36886        26.63484         0.82604
C         47.61612        28.75711         0.87867
C         46.44846        29.44938         1.23990
C         47.71380        31.61489         1.17373
C         46.47860        30.89654         1.36898
C         47.74450        33.03798         1.32682
C         46.51370        33.74293         1.53716
C         47.73026        35.90223         1.49400
C         46.54597        35.18551         1.48508
C         47.75516        37.34922         1.47111
C         46.54768        38.08574         1.54349
C         47.73442        40.23793         1.39035
C         46.51758        39.51891         1.46485
C         47.73924        41.63056         1.14188
C         46.50559        42.30563         0.98545
C         47.74892        44.47131         0.82718
C         46.48635        43.72086         0.47950
C         47.70988        45.94739         1.08829
C         46.48531        46.66247         0.54542
C         47.66686        48.80127         0.77159
C         46.46691        48.13389         0.75621
C         47.67874        50.27389         1.09990
C         46.45439        50.95510         0.47914
C         47.66321        53.12194         0.82559
C         46.44156        52.43180         0.79236
C         47.64270        54.52566         1.01325
C         46.44836        55.21639         1.08668
C         49.80891        20.42149        -1.36195
C         48.70386        21.02452        -0.73839
C         49.77720        23.19541        -1.07753
C         48.67145        22.44001        -0.60012
C         49.71514        24.66206        -0.99507
C         48.64962        25.32101        -0.22197
C         49.96033        27.43493        -0.16792
C         48.71923        26.69463         0.04560
C         50.06405        28.79515         0.22764
C         48.95744        29.43213         1.01868
C         50.10768        31.64738         0.67433
C         48.90947        30.93147         0.88376
C         50.15676        33.06343         0.90577
C         48.97434        33.74199         1.25773
C         50.26127        35.93888         1.31680
C         49.02655        35.17389         1.74892
C         50.25108        37.33220         1.30434
C         49.00237        38.03387         1.44824
C         50.27664        40.25917         1.45152
C         48.98575        39.49680         1.59857
C         50.22697        41.69399         1.09444
C         49.00163        42.35183         1.00916
C         50.21121        44.52492         0.85237
C         48.96502        43.79757         0.88302
C         50.19187        45.96110         0.71707
C         48.98852        46.64990         0.74136
C         50.21237        48.83837         0.58991
C         48.92471        48.09422         0.32533
C         50.18087        50.27968         0.58080
C         48.95649        50.98891         0.71809
C         50.14140        53.08923         0.43129
C         48.93088        52.39280         0.65832
C         50.88772        21.17122        -1.81288
C         52.08023        23.35482        -2.07771
C         50.90220        22.57623        -1.67900
C         52.20658        24.70657        -1.68078
C         51.00748        25.43560        -1.22049
C         52.40204        27.43047        -0.59458
C         51.10303        26.76935        -0.64062
C         52.43651        28.88196        -0.44816
C         51.25482        29.53469         0.00304
C         52.49278        31.66185         0.06976
C         51.29225        30.94935         0.26282
C         52.54600        33.06946         0.38515
C         51.42520        33.74970         0.81441
C         52.73464        35.93051         0.76925
C         51.55796        35.16753         1.34657
C         52.74941        37.39414         0.86942
C         51.49880        38.10194         1.14004
C         52.74845        40.26831         1.16640
C         51.50062        39.48369         1.17930
C         52.70756        41.71864         0.88282
C         51.46755        42.40032         0.90461
C         52.67215        44.54478         0.64694
C         51.44087        43.82812         0.78676
C         52.64787        45.98293         0.61213
C         51.44766        46.68284         0.60835
C         52.66991        48.86738         0.47432
C         51.42037        48.14472         0.58631
C         52.64807        50.28121         0.31203
C         51.39738        51.00259         0.40996
C         51.34243        52.41280         0.32622
C         54.26482        23.52925        -3.16430
C         53.15565        22.78358        -2.80428
C         54.42482        24.87320        -2.73168
C         53.39276        25.42770        -1.92912
C         54.65502        27.62104        -1.81972
C         53.59577        26.74862        -1.31449
C         54.74475        28.96638        -1.41783
C         53.63268        29.59721        -0.71481
C         54.81665        31.75608        -0.76358
C         53.65095        30.98657        -0.42407
C         54.86817        33.12482        -0.54838
C         53.89823        33.74165         0.41957
C         55.06379        35.94881        -0.04177
C         53.83786        35.24674         0.33289
C         55.23899        37.32204         0.55067
C         53.93960        38.07738         0.69625
C         55.22855        40.29259         0.49975
C         54.05139        39.52437         0.96241
C         55.16045        41.67183         0.37227
C         53.91636        42.40940         0.60104
C         55.11086        44.56375         0.18349
C         53.89475        43.83049         0.50229
C         55.12541        45.95894         0.19607
C         53.95766        46.71011         0.79187
C         55.09435        48.85057         0.10872
C         53.90311        48.16751         0.40970
C         55.05088        50.25694        -0.06264
C         53.86754        50.95424         0.06414
C         56.63894        25.15816        -3.89653
C         55.53348        25.70338        -3.13247
C         56.62284        27.92183        -3.27107
C         55.58366        27.07546        -2.76122
C         56.91129        29.16056        -2.68103
C         55.92338        29.73080        -1.76098
C         57.16382        31.84566        -1.31104
C         55.95790        31.07729        -1.33045
C         57.22214        33.21929        -1.39564
C         55.88973        33.94845        -1.29198
C         57.23432        36.11604        -1.29000
C         56.06282        35.33850        -0.73631
C         57.43141        37.45669        -0.61655
C         56.39180        38.10639        -0.03871
C         57.57464        40.29312        -0.41421
C         56.55471        39.55251         0.42038
C         57.48375        41.70683        -0.55670
C         56.32165        42.41739        -0.10347
C         57.44995        44.54339        -0.64365
C         56.28987        43.82207        -0.19701
C         57.46258        45.96994        -0.59640
C         56.30670        46.68789        -0.16450
C         57.53584        48.78069        -0.44551
C         56.33280        48.10873        -0.13213
C         57.50875        25.96743        -4.54085
C         58.42790        28.26429        -5.00560
C         57.25114        27.45077        -4.56561
C         58.73552        29.43154        -4.40813
C         58.08746        29.88582        -3.18747
C         59.57165        31.97588        -2.95148
C         58.69010        30.93138        -2.49574
C         59.51996        33.25588        -2.45666
C         58.44544        33.92204        -1.72674
C         59.69605        36.07964        -1.75601
C         58.49841        35.31418        -1.53582
C         59.82604        37.38434        -1.41312
C         58.79473        38.12556        -0.61584
C         59.66385        40.29562        -1.65716
C         58.66150        39.59846        -0.94464
C         59.62901        41.67180        -1.74228
C         58.56867        42.41113        -1.16207
C         59.73354        44.58993        -1.54954
C         58.58481        43.84897        -1.13667
C         59.77055        45.95827        -1.45175
C         58.63932        46.68137        -0.97261
C         58.66366        48.09010        -0.85583
O         49.73644        39.97878         2.79611
O         45.08188        36.71942         0.16371
O         47.17497        20.35893         1.13028
O         38.20340        46.13400         2.47868
O         29.73737        39.90977         0.22493
O         27.77219        46.37744        -3.36415
O         45.91861        46.24459        -0.71898
O         26.28539        25.56497        -0.34042
O         53.60810        39.91494         2.31641
O         25.25685        33.68436        -3.80746
O         43.66932        31.32267         3.40559
O         42.07261        26.83897         3.26027
O         44.24393        38.91344         3.13895
O         25.98359        31.81671         0.60486
O         53.45751        26.71886         0.14335
O         31.52479        48.53739        -2.33010
O         58.33505        31.09677        -1.14690
O         37.49342        49.65259         2.41996
O         49.95436        25.35296        -2.26922
O         34.80287        43.01590        -1.94639
O         44.57253        19.12081        -2.17793
H         43.71979        19.62796        -2.19544
O         47.53879        46.09810         2.56141
H         48.29893        45.64933         2.99075
O         42.22583        20.45911        -1.56476
H         41.36147        20.03050        -1.74538
O         49.13690        35.06226         3.21759
H         50.04232        34.71414         3.40246
O         51.90451        34.98084         2.78625
H         51.96469        35.87840         3.18266
O         41.22781        30.80096         3.86755
H         42.12139        30.74611         4.28803
O         42.42127        37.21839         3.52952
H         42.85451        37.99887         3.95358
O         38.57883        30.98469         3.41740
H         39.40381        30.81528         3.93722
O         54.42355        33.47611         1.77430
H         53.70883        33.72723         2.40466
O         42.94496        23.95509         3.13519
H         43.49455        24.67125         3.53905
O         49.33474        29.20190         2.43516
H         48.62509        29.58743         2.99279
O         56.80446        36.47546        -2.67418
H         56.08069        37.13426        -2.59625
O         56.20799        27.65646        -5.59356
H         56.03260        28.62041        -5.63691
O         24.35429        46.83729        -3.70128
H         24.64698        46.06340        -4.24250
O         28.09465        27.00897        -1.44255
H         27.59738        26.16600        -1.57349
O         48.81039        48.05860        -1.15123
H         49.61193        47.60942        -1.49501
O         46.59257        50.82977        -0.96270
H         45.81880        51.25795        -1.38376
O         55.67296        37.10518         1.95109
H         55.06189        36.44698         2.34813
O         33.83061        29.94628         2.43775
H         34.65679        30.31870         2.81655
O         42.78679        50.29612         2.95177
H         41.97402        49.85972         3.28623
O         59.26641        38.06078         0.76636
H         58.63079        38.58760         1.31899
O         31.15342        32.96111        -2.30589
H         30.40851        32.66196        -2.86946
O         37.49126        40.26042         2.56718
H         38.22924        40.73408         3.00831
O         25.96852        44.52979        -4.24174
H         26.75087        45.12913        -4.35697
O         33.69062        47.88510         1.69169
H         33.82446        48.77856         2.10141
O         26.17083        35.56239        -0.35635
H         26.66690        35.23546         0.42482
O         34.69140        33.63812        -1.83598
H         34.49116        32.70541        -2.11473
O         47.53447        50.39908         2.54298
H         48.29061        49.94472         2.96914
O         31.31821        33.64917         1.28882
H         31.99648        34.08520         1.84636
O         44.56126        26.25623         3.33597
H         43.92102        26.70782         3.93184
O         54.20388        46.70989         2.24957
H         54.27214        45.77275         2.53251
O         25.13614        39.73577        -4.95695
H         25.12370        40.71596        -5.00187
O         46.49496        43.60525        -0.99829
H         46.37126        44.52714        -1.33895
O         34.68879        51.02764        -1.61793
H         33.95552        51.36962        -2.17294
O         57.08991        39.49828         1.78638
H         56.53432        38.84706         2.27971
O         34.81524        50.23191         1.99097
H         35.62185        50.02317         2.53075
O         32.32224        42.13908        -2.98885
H         33.23114        42.50520        -3.11311
O         55.37934        34.10659        -2.66230
H         55.92828        34.81761        -3.07763
O         33.37727        31.28874        -1.90134
H         32.62358        31.74720        -2.35731
O         35.80176        48.69140        -1.25335
H         35.37435        49.44227        -1.73745
H         22.12203        27.35883         1.29383
H         22.15258        29.55016         0.11551
H         22.78892        30.23359        -2.23744
H         23.29420        32.04657        -3.87995
H         23.72054        35.17429        -5.13120
H         23.50021        37.67120        -4.97092
H         22.75000        39.26567        -3.17593
H         22.52738        41.62431        -2.55654
H         22.45304        43.53442        -2.18785
H         22.28474        45.92737        -1.83488
H         25.44668        24.13107         2.52616
H         23.38343        25.45450         2.31970
H         25.48230        49.23567        -0.53503
H         23.44011        48.03963        -1.11113
H         26.95156        22.79066         1.83858
H         27.04021        50.46722        -0.84558
H         29.03943        21.52088         2.05029
H         29.03213        51.75552        -0.37432
H         32.74289        19.23751         1.88213
H         30.66479        20.49665         1.92127
H         32.67255        54.06845         0.25802
H         30.70352        52.82512        -0.37460
H         34.37399        18.23853         1.61623
H         34.38283        55.08906         0.42353
H         36.44663        17.00442         1.33276
H         36.47903        56.28247         0.61040
H         40.25535        14.85183         0.92704
H         38.13503        16.04264         1.26550
H         40.23501        58.44335         0.83593
H         38.10974        57.22674         0.68639
H         42.68879        14.88212         0.40095
H         42.69103        58.45684         1.00492
H         44.71682        16.12742        -0.25249
H         44.83314        57.25504         1.09505
H         48.34488        18.19161        -0.83323
H         46.22160        17.11439        -1.13309
H         48.58284        55.08767         1.09205
H         46.48058        56.30678         1.21034
H         49.83938        19.33070        -1.48420
H         50.14267        54.18400         0.34621
H         51.74049        20.64767        -2.26423
H         52.26066        52.99589         0.17839
H         55.03331        23.06337        -3.79554
H         53.09217        21.74279        -3.14961
H         55.96566        50.81745        -0.29346
H         53.88451        52.04453        -0.06126
H         56.77316        24.06744        -3.93386
H         57.58978        49.87522        -0.38195
H         58.34784        25.55476        -5.11959
H         58.98242        27.92943        -5.89451
H         59.58248        30.02736        -4.78050
H         60.31604        31.75758        -3.73326
H         60.29496        33.92504        -2.85781
H         60.57677        35.58108        -2.18531
H         60.80387        37.86581        -1.55600
H         60.50090        39.75109        -2.11324
H         60.44365        42.18989        -2.26465
H         60.62083        44.06098        -1.92126
H         60.67344        46.51256        -1.74573
H         59.58265        48.63660        -1.11158
