         344
 CSIRO Nanostructure Databank - Neutral Graphene Oxide Data Set
C          1.27636         3.36047        -0.46923
C          0.04542         3.95350        -0.64973
C          0.97454         6.08967         0.07664
C         -0.09928         5.32590        -0.37343
C          0.73943         7.48666         0.43873
C          0.12806         8.44575        -0.31346
C          1.17874        10.56670         0.58956
C          0.19526         9.86928        -0.06257
C          1.14853        12.03542         0.62343
C         -0.06269        12.74614         0.51472
C          1.11356        14.88838         0.47735
C         -0.07987        14.13309         0.44634
C          1.11336        16.32726         0.28726
C         -0.06613        17.03516        -0.01345
C          1.15893        19.13508        -0.16972
C         -0.03496        18.40413        -0.25465
C          1.15637        20.58786        -0.58617
C         -0.06156        21.36356        -0.15344
C          1.17153        23.45993        -0.35110
C         -0.03762        22.72887        -0.13666
C          1.17257        24.97171        -0.28792
C         -0.02651        25.62529        -0.92867
C          1.20373        27.70919        -1.19881
C         -0.01192        26.95110        -1.23788
C          1.23729        29.10465        -1.08534
C          3.65926         3.47788         0.04322
C          2.40727         4.12929        -0.07443
C          3.51256         6.28202         0.45343
C          2.29789         5.53068         0.20253
C          3.54361         7.74910         0.67315
C          2.52363         8.48819         1.18167
C          3.65368        10.66491         0.72153
C          2.42196         9.97948         1.25089
C          3.62868        12.08623         0.72147
C          2.36100        12.77409         0.72256
C          3.58136        14.93657         0.72125
C          2.34957        14.19852         0.64636
C          3.55058        16.34513         0.64881
C          2.34246        17.05042         0.36614
C          3.61460        19.20262         0.20574
C          2.36316        18.47063         0.15286
C          3.62445        20.63775         0.02051
C          2.42235        21.32782        -0.23783
C          3.64761        23.46150        -0.28786
C          2.40223        22.75053        -0.30901
C          3.64667        24.86206        -0.65833
C          2.47479        25.56650        -0.77930
C          3.71647        27.72400        -1.10832
C          2.47442        26.94005        -1.42511
C          3.70145        29.12252        -0.95932
C          2.43704        29.80526        -0.98221
C          6.09437         3.42820         0.50551
C          4.81372         4.19859         0.28379
C          6.06168         6.38417         0.54130
C          4.75538         5.61413         0.40250
C          5.98104         7.74864        -0.13662
C          4.72847         8.49455         0.15659
C          6.05935        10.64891         0.30276
C          4.80098         9.96456         0.35805
C          6.08173        12.07960         0.54452
C          4.84342        12.79854         0.64355
C          6.07625        14.90418         0.75718
C          4.84283        14.22658         0.74539
C          6.11402        16.35585         0.93761
C          4.77511        17.11880         0.86991
C          6.07240        19.22279         0.50974
C          4.81504        18.54010         0.49911
C          6.08290        20.65015         0.39080
C          4.85147        21.36024         0.16671
C          6.09702        23.51556        -0.00521
C          4.85732        22.77840        -0.04288
C          6.17284        24.83487        -0.42110
C          4.96056        25.48839        -0.94754
C          6.21083        27.73443        -0.78006
C          4.98423        27.01367        -1.11771
C          6.17326        29.16480        -0.74197
C          4.93092        29.83349        -0.83183
C          8.53911         3.51526         0.02207
C          7.34090         4.21271         0.18971
C          8.51359         6.34165        -0.08573
C          7.30379         5.61825         0.13568
C          8.52316         7.76796        -0.14157
C          7.26250         8.52718        -0.46315
C          8.51536        10.60601         0.17116
C          7.27431         9.94896         0.07420
C          8.58271        12.00532         0.73260
C          7.29723        12.78110         0.60786
C          8.54809        14.94589         0.61430
C          7.31839        14.20441         0.67639
C          8.54086        16.34139         0.45419
C          7.34396        17.07739         0.61180
C          8.54898        19.22622         0.53628
C          7.31323        18.50729         0.56611
C          8.53630        20.64744         0.53817
C          7.31475        21.34557         0.46773
C          8.58607        23.42701        -0.07712
C          7.32661        22.85493         0.57019
C          8.61085        24.93797        -0.01826
C          7.40978        25.59666        -0.33756
C          8.61657        27.75599        -0.31374
C          7.40013        27.02634        -0.49877
C          8.62315        29.19708        -0.49023
C          7.40813        29.87149        -0.64594
C         11.00012         3.50485        -0.21938
C          9.76998         4.20098        -0.15238
C         10.97264         6.34540        -0.38699
C          9.74942         5.63200        -0.20673
C         10.96964         7.78328        -0.29500
C          9.73594         8.48360        -0.14664
C         11.00062        10.62206         0.13376
C          9.74146         9.92188         0.00515
C         11.06432        12.03713         0.24362
C          9.76489        12.80654         0.17471
C         11.09355        14.93443         0.36248
C          9.85486        14.20057         0.82612
C         11.08328        16.33841         0.29918
C          9.79230        17.07886         0.02403
C         11.00766        19.21504         0.47295
C          9.80100        18.52552         0.46411
C         11.04092        20.63410         0.68437
C          9.79640        21.37278         0.63737
C         10.98303        23.52915         0.83078
C          9.80069        22.75431         0.50315
C         11.05393        24.97030         0.51141
C          9.81615        25.66081         0.18402
C         11.03270        27.84943         0.22096
C          9.79346        27.07580         0.04387
C         11.08343        29.24602        -0.28161
C          9.87165        29.89436        -0.52803
C         13.47684         3.52655        -0.44134
C         12.21888         4.19799        -0.39033
C         13.41944         6.32795        -0.84921
C         12.18051         5.62126        -0.52461
C         13.41749         7.84966        -0.71737
C         12.18548         8.51858        -0.27692
C         13.52001        10.56394         0.36112
C         12.21302         9.88202         0.03957
C         13.51761        12.05252         0.07479
C         12.30101        12.74785         0.15880
C         13.51503        14.93030         0.03874
C         12.30320        14.21968         0.17787
C         13.52351        16.34564         0.13192
C         12.29242        17.04300         0.21282
C         13.53849        19.22707         0.32869
C         12.25459        18.52892        -0.04499
C         13.52889        20.60889         0.59155
C         12.27533        21.30907         0.71750
C         13.57254        23.47990         0.83288
C         12.30411        22.74586         0.97177
C         13.55094        24.92557         0.70937
C         12.28070        25.61774         0.54444
C         13.57668        27.69064        -0.14806
C         12.31089        27.09494         0.41815
C         13.56655        29.20358        -0.22968
C         12.33753        29.88980        -0.37776
C         15.95896         3.53759        -0.54652
C         14.70227         4.21925        -0.58155
C         15.91556         6.36807        -0.89627
C         14.70713         5.63175        -0.76366
C         15.90186         7.78717        -0.87590
C         14.70966         8.53342        -0.54292
C         16.05899        10.53358         0.06221
C         14.73226         9.85548        -0.16965
C         15.96969        12.05244        -0.03394
C         14.77994        12.73613        -0.06190
C         16.03914        14.96952        -0.05215
C         14.77163        14.21820        -0.40692
C         16.01470        16.38547         0.07851
C         14.77331        17.08489         0.14258
C         15.99243        19.19882         0.58628
C         14.76127        18.50282         0.33043
C         15.97249        20.58642         0.86114
C         14.76020        21.31736         0.83477
C         16.03181        23.51425         1.23458
C         14.75331        22.76181         0.92367
C         16.02537        24.95711         0.76930
C         14.76557        25.62852         0.63921
C         16.06235        27.75032         0.13656
C         14.77423        27.14399         0.63051
C         16.04438        29.12604        -0.25028
C         14.79620        29.84340        -0.33438
C         18.42190         3.53131        -0.55825
C         17.16181         4.22483        -0.67069
C         18.40466         6.33914        -0.89198
C         17.17824         5.65773        -0.86513
C         18.45980         7.78472        -1.16628
C         17.11503         8.53900        -1.15882
C         18.39074        10.74999        -1.07740
C         17.01124        10.05203        -1.06026
C         18.42611        12.22060        -0.80203
C         17.29512        12.76483         0.09723
C         18.50025        14.93391         0.14123
C         17.28072        14.27423         0.04727
C         18.52814        16.40467        -0.21567
C         17.25229        17.11948         0.17870
C         18.49202        19.21937         0.64772
C         17.24404        18.47774         0.48470
C         18.49881        20.56635         0.84619
C         17.24621        21.30690         1.23568
C         18.53479        23.47487         0.90047
C         17.23425        22.74676         0.68574
C         18.52305        24.98236         1.06003
C         17.22861        25.63964         0.64283
C         18.50570        27.69144        -0.03668
C         17.26242        27.03606         0.24919
C         18.48945        29.06177        -0.44663
C         17.26050        29.75925        -0.54445
C         19.60483         4.20914        -0.53325
C         20.82940         6.36692        -0.54793
C         19.63764         5.64419        -0.65927
C         20.83164         7.78514        -0.57029
C         19.70487         8.51596        -0.88795
C         20.89945        10.78668        -0.98328
C         19.65200        10.01143        -0.62923
C         20.95019        12.12631        -0.94519
C         19.73994        13.02668        -0.83861
C         21.04204        15.00163         0.01275
C         19.81546        14.15963         0.21422
C         20.99735        16.36830         0.19964
C         19.79144        17.07568         0.24151
C         20.89277        19.33642         0.06747
C         19.82167        18.49127         0.73291
C         20.89903        20.65805         0.27047
C         19.81058        21.28875         1.10689
C         20.95981        23.53812         0.95094
C         19.73198        22.79978         0.94894
C         20.96994        24.89354         0.63752
C         19.77782        25.62858         0.51316
C         20.94340        27.69239        -0.25204
C         19.75755        26.99867         0.07819
C         20.91532        29.03056        -0.66231
C         19.71405        29.71688        -0.75519
O         17.77186         8.16633        -2.41708
O         13.28555         7.21473        -2.02376
O          1.36111         7.85066         1.65558
O          5.43404        16.83609         2.14927
O          5.01852         7.94203        -1.20964
O         18.32466        11.70213        -2.17668
O          5.12048        26.06106        -2.28220
O         11.68931        27.75925         1.54957
O         11.54064        23.18569         2.14610
O          9.77744        17.23956        -1.40461
O         18.57002        16.44283        -1.69863
H         19.04404        15.62425        -1.99431
O         10.04568        14.10601         2.26244
H          9.52481        13.33498         2.59667
O         17.33561        21.36413         2.69825
H         16.93819        20.54163         3.05329
O         20.03182        13.57393         1.53558
H         20.13116        14.31320         2.17271
O          1.07644        25.32200         1.14969
H          1.75604        24.79618         1.62295
O         18.59041        25.22969         2.52320
H         19.33751        24.69538         2.86902
O         13.66421        10.45055         1.83181
H         14.63371        10.44476         2.02595
O         19.52025        10.10017         0.84000
H         20.28280         9.62988         1.23986
O          9.47479        13.01597        -1.22927
H         10.12418        13.65626        -1.59112
O         14.72247        14.23376        -1.88064
H         14.64737        15.16999        -2.16500
O          1.10538        20.55443        -2.06644
H          1.13765        21.48512        -2.37585
O         20.12250        21.07732         2.52792
H         19.28940        21.31233         3.00896
O          8.79583        11.79706         2.17425
H          8.00202        11.34382         2.52987
O         16.13197        23.56420         2.67962
H         15.36965        24.08075         3.01466
O         16.50827        10.08884         1.36253
H         17.18990        10.74362         1.67397
O         17.68793        12.38971         1.46121
H         18.61637        12.69050         1.64448
O         14.61798        27.57151         2.01250
H         15.42266        27.30389         2.50402
O         17.02720        22.66541        -0.74871
H         17.75898        22.14136        -1.13734
O          2.51415        26.67946        -2.88208
H          3.42526        26.33688        -3.06862
O          7.32216         8.67086        -1.91651
H          6.38544         8.67343        -2.23033
O         20.15840        18.38715         2.15365
H         20.27964        19.31713         2.48777
O         19.71990        13.78850        -2.08224
H         19.37015        13.18051        -2.77597
O          2.34657        10.33385         2.66882
H          1.62888         9.78742         3.05575
O          6.23601         6.72129         1.95970
H          6.34652         5.88445         2.45804
O         12.10301        18.62992        -1.50509
H         11.23927        18.14007        -1.70505
O          8.51035        23.06614        -1.48602
H          9.29412        23.43236        -1.94542
O          6.08149         2.18987        -0.21242
H          6.12803         2.39227        -1.16915
O         13.65790        27.19234        -1.50989
H         14.46806        27.56351        -1.91938
O          7.37531        23.18673         1.98521
H          6.63663        22.72588         2.43440
O         16.29817        10.43683        -2.25258
H         16.77257        10.05004        -3.02031
H          1.41146         2.28576        -0.65776
H         -0.82068         3.36503        -0.98118
H         -1.08593         5.80061        -0.47258
H         -0.41898         8.13006        -1.21405
H         -0.58230        10.46177        -0.57250
H         -1.01583        12.19976         0.48136
H         -1.05037        14.63849         0.35378
H         -1.02586        16.50865        -0.09717
H         -0.96623        18.91002        -0.54308
H         -1.00940        20.83702         0.02485
H         -0.96185        23.28286         0.08430
H         -0.96934        25.06231        -0.98849
H         -0.94944        27.46399        -1.50700
H          0.28680        29.65619        -1.02471
H          3.72015         2.38741        -0.08498
H          2.42471        30.89983        -0.88269
H          6.12839         3.15175         1.59932
H          4.90836        30.93194        -0.79069
H          8.52928         2.41693         0.07217
H          7.40140        30.96914        -0.71515
H         11.00513         2.40824        -0.14053
H          9.87127        30.96212        -0.79468
H         13.49470         2.43174        -0.33757
H         12.36113        30.96852        -0.59892
H         15.97031         2.44833        -0.39151
H         14.83224        30.93016        -0.50544
H         18.40711         2.43673        -0.45030
H         17.26484        30.81485        -0.85389
H         20.55496         3.67041        -0.40516
H         21.77231         5.83333        -0.36454
H         21.77316         8.30600        -0.33770
H         21.82419        10.22107        -1.17795
H         21.90427        12.62806        -1.17168
H         22.01084        14.48248         0.02591
H         21.94226        16.91536         0.34358
H         21.66552        18.85733        -0.55214
H         21.66959        21.29546        -0.18867
H         21.91100        23.00455         1.07971
H         21.94065        25.37638         0.45645
H         21.91625        27.18851        -0.17981
H         21.85853        29.53942        -0.90606
H         19.69521        30.76992        -1.06993
