         424
 CSIRO Nanostructure Databank - Neutral Graphene Oxide Data Set
C          1.34807         3.35276         0.55295
C          0.13311         4.05560         0.72892
C          1.16400         6.20306         0.08511
C          0.04969         5.42601         0.61528
C          1.16956         7.69514         0.12568
C         -0.05800         8.39625         0.06147
C          1.11163        10.53611         0.02924
C         -0.09008         9.77567         0.03630
C          1.10268        11.96541         0.08251
C         -0.12627        12.71914         0.12149
C          1.08859        14.81755         0.75899
C         -0.14858        14.04893         0.37644
C          1.05993        16.24680         0.20571
C         -0.12175        17.08587         0.45820
C          1.13895        19.16117         0.01239
C         -0.08108        18.43206         0.29719
C          1.13367        20.59972        -0.09455
C         -0.07666        21.34471        -0.11631
C          1.13773        23.45679        -0.25806
C         -0.07469        22.72069        -0.19883
C          1.15159        24.90045        -0.34375
C         -0.06635        25.67598        -0.34459
C          1.14230        27.81345        -0.43993
C         -0.06461        27.04765        -0.36081
C          1.16835        29.20880        -0.43381
C         -0.01653        30.00454        -0.45800
C          1.23034        32.11759        -0.24986
C          0.01682        31.37961        -0.43657
C          1.22857        33.55112        -0.12603
C          0.03778        34.32664        -0.24575
C          1.28070        36.40427         0.02886
C          0.06180        35.70393        -0.16636
C          1.32478        37.83245         0.09076
C          3.81497         3.40962         0.44686
C          2.55502         4.03487         0.34415
C          3.75114         6.24981         0.12246
C          2.51247         5.46975         0.00328
C          3.68843         7.72925         0.40915
C          2.37498         8.41305         0.09955
C          3.59147        10.57715        -0.08332
C          2.35769         9.83274         0.03501
C          3.57502        11.96981        -0.08418
C          2.33789        12.69156         0.10703
C          3.63085        14.78140         0.45645
C          2.34740        14.07869         0.35690
C          3.64373        16.32601         0.35439
C          2.35391        16.99326        -0.00337
C          3.60786        19.16105        -0.12726
C          2.35852        18.47008        -0.03171
C          3.60671        20.58327        -0.20269
C          2.36643        21.30344        -0.18589
C          3.60820        23.44373        -0.29056
C          2.36698        22.73581        -0.25455
C          3.60959        24.86957        -0.33334
C          2.37537        25.57889        -0.39055
C          3.64413        27.72264        -0.13229
C          2.42397        27.05642        -0.70744
C          3.55082        29.14401         0.33218
C          2.50581        29.92364        -0.49421
C          3.63590        32.06400         0.21687
C          2.45050        31.39634        -0.10959
C          3.66959        33.49020         0.28192
C          2.46197        34.23186         0.09431
C          3.72373        36.34783         0.33855
C          2.48867        35.66070         0.16029
C          3.75221        37.78058         0.36829
C          2.51379        38.49685         0.25221
C          6.26516         3.50279         0.43348
C          5.01502         4.14221         0.32852
C          6.20550         6.34512         0.15061
C          4.96236         5.59521         0.21426
C          6.17172         7.75548        -0.06633
C          4.90751         8.47478        -0.07372
C          6.08839        10.61131        -0.32722
C          4.85145         9.84837        -0.23760
C          6.09280        11.96457        -0.18981
C          4.82781        12.73952        -0.43751
C          6.10424        14.85334         0.06019
C          4.88199        14.13362         0.11998
C          6.10482        16.31664         0.00651
C          4.89962        17.02081         0.01154
C          6.07720        19.15011        -0.31975
C          4.85522        18.44401        -0.16535
C          6.06984        20.57998        -0.36837
C          4.84445        21.29273        -0.29330
C          6.07318        23.43657        -0.28888
C          4.84592        22.72887        -0.29940
C          6.06984        24.87408        -0.22211
C          4.84632        25.58384        -0.27550
C          6.08905        27.71624         0.11578
C          4.84359        27.02216        -0.09582
C          6.07481        29.15526         0.26913
C          4.87904        29.84973         0.35649
C          6.14081        32.02575         0.51749
C          4.84084        31.30452         0.74025
C          6.14606        33.44621         0.53849
C          4.90795        34.18290         0.46675
C          6.17655        36.31404         0.55505
C          4.93799        35.60931         0.46112
C          6.20357        37.74800         0.57248
C          4.97682        38.45619         0.49595
C          8.71443         3.55685         0.44278
C          7.48298         4.21808         0.35608
C          8.65499         6.37121        -0.03538
C          7.44613         5.66398         0.17044
C          8.62047         7.76707        -0.29977
C          7.38031         8.44498        -0.27348
C          8.62852        10.62782        -0.34089
C          7.35908         9.88726        -0.68062
C          8.62460        11.99089        -0.14764
C          7.34159        12.68705         0.24742
C          8.60426        14.90126         0.24653
C          7.32460        14.16361        -0.02924
C          8.58221        16.33244        -0.22149
C          7.34476        17.02181        -0.21371
C          8.54733        19.14089        -0.58118
C          7.32177        18.43970        -0.37688
C          8.54305        20.59322        -0.57976
C          7.30987        21.29070        -0.43933
C          8.54865        23.39914        -0.25778
C          7.31231        22.71310        -0.34547
C          8.52258        24.81823         0.12355
C          7.28779        25.58345        -0.01629
C          8.57199        27.71934         0.13001
C          7.31017        26.99893         0.11680
C          8.55209        29.16302         0.18367
C          7.34212        29.86339         0.31499
C          8.58948        32.00210         0.41620
C          7.34214        31.30081         0.41834
C          8.60311        33.41643         0.55360
C          7.37951        34.14674         0.58332
C          8.61991        36.29128         0.69110
C          7.40355        35.59167         0.61940
C          8.66090        37.71579         0.70134
C          7.44888        38.42592         0.65269
C         11.16776         3.59639         0.44587
C          9.95859         4.24287         0.29680
C         11.08021         6.32780        -0.40174
C          9.93064         5.67779        -0.03453
C         11.07871         7.73052        -0.94278
C          9.84122         8.49766        -0.54988
C         11.11762        10.60545        -0.43232
C          9.86317         9.88975        -0.48147
C         11.10675        12.02390        -0.28762
C          9.86063        12.74049        -0.16143
C         11.06781        14.87650        -0.25383
C          9.85393        14.14195        -0.11756
C         11.05882        16.29637        -0.44309
C          9.78635        17.01422        -0.49410
C         10.99191        19.12671        -1.11405
C          9.75338        18.41765        -0.72022
C         10.98212        20.62982        -1.11037
C          9.74999        21.32277        -0.67846
C         11.03975        23.46175        -0.47653
C          9.77428        22.72509        -0.46313
C         11.05066        24.87283        -0.31210
C          9.84865        25.58972         0.10374
C         11.02044        27.75377        -0.28184
C          9.79357        27.05105        -0.00905
C         11.00693        29.19971        -0.18725
C          9.79889        29.87433         0.11307
C         11.05686        31.98844         0.28994
C          9.81748        31.29213         0.27341
C         11.05110        33.39897         0.51318
C          9.85257        34.09395         0.61847
C         11.05887        36.24292         0.15418
C          9.91710        35.56503         0.91272
C         11.14418        37.68950         0.61184
C          9.94755        38.37440         0.79327
C         13.66907         3.53488         0.07803
C         12.44767         4.37538         0.33149
C         13.60290         6.29971        -0.84237
C         12.29882         5.49284        -0.71059
C         13.58215         7.77612        -0.64049
C         12.37691         8.46510        -0.64000
C         13.57478        10.60418        -0.30507
C         12.34594         9.89264        -0.45921
C         13.56823        12.02483        -0.18338
C         12.32957        12.73791        -0.20060
C         13.52091        14.91068        -0.18711
C         12.31253        14.17863        -0.20723
C         13.51745        16.30397        -0.37019
C         12.28199        16.98016        -0.56321
C         13.56117        19.16617        -0.76568
C         12.31779        18.39828        -0.97611
C         13.63182        20.64573        -1.15557
C         12.28917        21.38398        -1.10618
C         13.49828        23.52711        -0.58670
C         12.26751        22.80097        -0.68244
C         13.47745        24.94399        -0.56902
C         12.24327        25.62162        -0.50713
C         13.40943        27.75875        -1.13589
C         12.20595        27.06219        -0.53301
C         13.39708        29.27126        -0.91800
C         12.21233        29.92491        -0.33769
C         13.54600        31.97257         0.10609
C         12.27871        31.29943        -0.00760
C         13.54568        33.31019         0.83064
C         12.31717        34.12678         0.52682
C         13.62597        36.20267         0.05021
C         12.34724        35.47072         0.34665
C         13.63228        37.61576         0.59677
C         12.41428        38.29288         0.78977
C         16.10271         3.46460        -0.03911
C         14.86695         4.13381        -0.25901
C         16.22877         6.32770        -0.62412
C         14.90191         5.56304        -0.70622
C         16.06213         7.78183        -0.22991
C         14.83443         8.46230        -0.38593
C         16.02791        10.60915        -0.11441
C         14.80936         9.89042        -0.25152
C         16.01182        12.04040        -0.12065
C         14.81000        12.73042        -0.10591
C         16.00411        14.90698        -0.51999
C         14.81621        14.21873         0.15695
C         15.98388        16.39516        -0.27376
C         14.76697        17.05962        -0.33757
C         15.98744        19.24274        -0.28355
C         14.72744        18.51058        -0.41607
C         15.98954        20.64265        -0.29838
C         14.65861        21.34710        -0.25068
C         15.97241        23.52754        -0.53566
C         14.73663        22.82826        -0.50430
C         16.00083        24.94346        -0.63370
C         14.74858        25.70397        -0.29675
C         15.95540        27.80596        -0.96073
C         14.73606        27.12040        -0.78153
C         15.95629        29.23599        -1.01056
C         14.71234        30.00778        -0.86124
C         16.02566        31.92496         0.09880
C         14.75176        31.33500        -0.19825
C         16.08091        33.24283         0.83836
C         14.83086        34.07357         0.62082
C         16.17432        36.14017         0.22140
C         14.86456        35.40749         0.40960
C         16.11251        37.60735         0.61254
C         14.86368        38.25405         0.80005
C         18.44199         3.51539         0.74784
C         17.28390         4.19450         0.24397
C         18.42981         6.34304         0.58379
C         17.30130         5.61081         0.15529
C         18.44344         7.78121         0.51556
C         17.24681         8.49287         0.11930
C         18.45897        10.64103         0.42297
C         17.24864         9.91005         0.11408
C         18.49191        12.05182         0.29850
C         17.33132        12.74262        -0.36105
C         18.44035        14.94056         0.16221
C         17.28724        14.22668        -0.12879
C         18.43744        16.39477         0.11035
C         17.22578        17.10312        -0.12018
C         18.44586        19.25181        -0.01690
C         17.21753        18.52853        -0.13795
C         18.44554        20.67553        -0.13231
C         17.20814        21.37930        -0.28085
C         18.44467        23.51156        -0.53618
C         17.21140        22.79745        -0.44439
C         18.44074        24.88988        -0.90338
C         17.21666        25.64852        -0.88116
C         18.39811        27.78864        -1.66033
C         17.20946        27.06997        -1.02039
C         18.49704        29.28038        -1.25647
C         17.19977        30.01136        -0.99351
C         18.49824        31.92595        -0.04578
C         17.22469        31.30551        -0.27036
C         18.52929        33.31618         0.37538
C         17.36406        33.99012         0.59565
C         18.62122        36.17950         0.58585
C         17.34565        35.45517         0.94331
C         18.57385        37.59335         0.47021
C         17.31937        38.28499         0.66721
C         19.54742         4.21918         1.15497
C         20.70438         6.38463         1.50765
C         19.56700         5.64407         1.09517
C         20.71735         7.75997         1.42455
C         19.59197         8.49020         0.93742
C         20.75375        10.69716         1.23596
C         19.61237         9.93972         0.87223
C         20.76582        12.07505         1.13940
C         19.64215        12.78808         0.64153
C         20.83083        14.98723         0.68326
C         19.65974        14.23786         0.49511
C         20.83860        16.37441         0.57082
C         19.65865        17.10828         0.29532
C         20.87030        19.30013         0.28423
C         19.66819        18.54777         0.19142
C         20.87634        20.67001         0.14609
C         19.67417        21.40237        -0.07822
C         20.89597        23.56987        -0.28071
C         19.67572        22.81462        -0.29523
C         20.93446        24.86225        -0.70193
C         19.72792        25.52704        -1.20278
C         20.93698        27.79211        -1.14933
C         19.74178        27.05346        -1.52878
C         20.90946        29.08088        -0.68197
C         19.72588        29.86650        -0.68542
C         20.96764        31.94433        -0.07384
C         19.71346        31.22561        -0.26559
C         21.03697        33.23244         0.31857
C         19.82803        34.00118         0.76206
C         20.99458        36.20272         0.12056
C         19.82792        35.48449         0.43400
C         20.95500        37.59548        -0.00598
C         19.76594        38.29367         0.18883
O         11.66203        18.58867        -2.29382
O         19.92581        26.06779        -2.56452
O          1.70763         5.73418        -1.19978
O         14.31991         5.82083        -2.04286
O          1.63898        16.37173        -1.12994
O          3.68181        15.68992         1.63576
O         13.87463        29.99982        -2.10856
O         17.91107        30.13017        -2.30777
O         11.52602        21.20262        -2.35263
O          9.26957        25.08624         1.36309
O         17.14478        35.55755         2.38743
H         18.00809        35.32185         2.79805
O         19.83072        33.96714         2.24256
H         19.85905        33.02314         2.50894
O         14.10731        20.69727        -2.51069
H         13.32410        20.54895        -3.08959
O         13.27528        27.52745        -2.57756
H         13.63783        28.33642        -3.01502
O         12.00607         4.90094        -2.00186
H         12.87564         4.79448        -2.46209
O          7.31144        12.58277         1.72604
H          7.94366        13.26680         2.06375
O         18.07113        27.73959        -3.07020
H         17.69914        28.62597        -3.30336
O          3.77893         7.79344         1.89201
H          3.86111         8.74084         2.13555
O         13.44487        32.98966         2.25225
H         14.35542        32.72903         2.54703
O         17.55530        12.59135        -1.81495
H         16.84260        13.12059        -2.25180
O         16.77940         6.38319        -1.97950
H         16.00948         6.47733        -2.58819
O          1.05871        14.97900         2.21535
H          1.18596        14.09373         2.61596
O         15.81781        14.71439        -1.96572
H         16.37155        15.37765        -2.43005
O         11.00839         7.57844        -2.40923
H         11.32464         6.66620        -2.62252
O         14.78851        25.82449         1.20284
H         14.72566        24.91224         1.56039
O          2.99086        29.89457        -1.86113
H          2.27532        30.21452        -2.44808
O         16.47822        36.08663        -1.19745
H         15.69484        36.45864        -1.66565
O         14.12773        21.17552         1.10926
H         14.81061        21.48675         1.73986
O          2.59589        27.09729        -2.17902
H          1.85856        26.57968        -2.56709
O          8.66518        14.99318         1.74651
H          7.93148        15.58488         2.02443
O         10.75018        36.24308        -1.26097
H         11.54079        36.60347        -1.72274
O         13.66266        36.35376        -1.42619
H         13.61497        35.45007        -1.80828
O          3.02172        29.12873         1.71456
H          3.55567        28.48334         2.22590
O          4.63679        31.31348         2.20864
H          3.85117        30.73500         2.37280
O         10.24301        35.70933         2.32965
H          9.60348        35.17368         2.84371
O         15.01276        14.39030         1.59236
H         14.24881        13.98353         2.05223
O          4.78264        12.91269        -1.91052
H          4.93667        12.03170        -2.31596
O         12.67619         5.06717         1.61189
H         12.67149         4.39014         2.32072
O          7.33181         9.87002        -2.16168
H          8.11566         9.35837        -2.45980
O         16.12728        32.93705         2.29000
H         16.33852        33.80344         2.72246
H          1.36794         2.26646         0.72197
H         -0.75071         3.49283         1.06314
H         -0.85020         5.94817         0.97047
H         -1.00235         7.83467         0.04481
H         -1.06417        10.28148         0.01492
H         -1.07716        12.20354        -0.07382
H         -1.11377        14.57481         0.41017
H         -1.04493        16.61026         0.81888
H         -0.99992        19.00359         0.48640
H         -1.04282        20.82494        -0.07943
H         -1.03897        23.24539        -0.21689
H         -1.03275        25.15876        -0.28071
H         -1.02876        27.56972        -0.28056
H         -0.99523        29.50908        -0.52847
H         -0.93656        31.92016        -0.50499
H         -0.92672        33.82773        -0.40983
H         -0.87299        36.27480        -0.26522
H          0.38405        38.39468        -0.00265
H          3.86411         2.32773         0.64270
H          2.53470        39.59592         0.28740
H          6.29675         2.41036         0.56364
H          4.98838        39.55630         0.51390
H          8.72828         2.47004         0.61627
H          7.45912        39.52603         0.66124
H         11.19863         2.53193         0.72571
H          9.96705        39.45382         1.01248
H         13.67932         2.49367         0.43951
H         12.45132        39.33915         1.13492
H         16.08515         2.38488         0.17412
H         14.86518        39.30912         1.11845
H         18.42720         2.41739         0.80616
H         17.33358        39.37575         0.81777
H         20.43394         3.69114         1.53554
H         21.58328         5.84735         1.89259
H         21.61643         8.29768         1.75307
H         21.65814        10.19295         1.60127
H         21.67236        12.61574         1.44278
H         21.77816        14.48101         0.91259
H         21.79081        16.89998         0.71990
H         21.82764        18.78808         0.44813
H         21.83824        21.19580         0.20391
H         21.83266        23.08852         0.02993
H         21.90126        25.37750        -0.77056
H         21.90587        27.28162        -1.22801
H         21.85382        29.52653        -0.34197
H         21.90420        31.43104        -0.33330
H         22.02390        33.70780         0.41636
H         21.95189        35.68121        -0.01466
H         21.87774        38.14321        -0.24384
H         19.74638        39.38962         0.10361
