         490
 CSIRO Nanostructure Databank - Neutral Graphene Oxide Data Set
C         37.68660        50.18476        -1.26863
C         36.61579        50.90088        -1.70570
C         37.78304        53.01748        -1.41969
C         36.71344        52.33706        -1.88411
C         40.29551        48.78562        -1.33388
C         40.14017        50.18803        -0.95439
C         38.94024        50.85188        -0.95121
C         40.12074        53.06345        -0.42560
C         38.80990        52.31454        -0.55514
C         40.12559        54.44233        -0.14353
C         42.46684        48.67461        -0.13583
C         41.42695        48.09519        -1.06817
C         42.60260        50.16752        -0.32420
C         41.43845        50.95299        -0.89461
C         42.53402        53.05418        -0.08046
C         41.34106        52.37474        -0.40816
C         42.54893        54.45328         0.13421
C         41.31381        55.13280         0.07890
C         44.98878        45.83504         0.11361
C         43.79696        46.54636         0.02976
C         45.02774        48.62821        -0.03306
C         43.79561        47.94485        -0.08977
C         45.09542        50.12089        -0.26069
C         43.76701        50.81262        -0.07390
C         45.00019        52.96833         0.63414
C         43.73460        52.25865         0.24385
C         45.00851        54.43221         0.49267
C         43.83623        55.14201         0.31946
C         45.08183        57.25967         0.53824
C         43.91393        56.58807         0.27871
C         47.53170        44.37495        -0.06898
C         47.50041        45.76407         0.11163
C         46.23207        46.50011         0.10771
C         47.53965        48.67076         0.00307
C         46.23462        47.91178         0.07670
C         47.43062        50.06472         0.58412
C         46.28431        50.79709         0.38806
C         47.45734        52.89696         0.94560
C         46.27747        52.21443         0.65081
C         47.38380        54.36424         1.29507
C         46.36231        55.10557         0.43296
C         47.49327        57.20721         1.19948
C         46.31598        56.57605         0.77983
C         47.51877        58.64780         1.40598
C         49.96376        44.31020         0.15255
C         48.73386        43.66854        -0.06824
C         49.96558        45.72583         0.37815
C         48.73407        46.45712         0.30792
C         49.93144        48.53073         0.78075
C         48.74530        47.87773         0.45826
C         49.93590        49.96470         1.15918
C         48.63042        50.73685         1.10668
C         49.92883        52.88808         1.20144
C         48.68811        52.20447         1.08081
C         49.94590        54.31882         1.30686
C         48.72684        55.06673         1.29241
C         49.97712        57.13277         1.89241
C         48.71365        56.45774         1.39344
C         49.97227        58.64944         1.71281
C         48.66316        59.32646         1.62195
C         52.44363        41.47890        -0.15238
C         51.25516        42.18540        -0.12904
C         52.44463        44.24803         0.39348
C         51.21631        43.57439         0.14320
C         52.44652        45.68845         0.62807
C         51.18877        46.41373         0.62319
C         52.37491        48.56097         1.06769
C         51.16781        47.81716         0.85622
C         52.38823        49.96655         1.04056
C         51.18893        50.72849         1.06527
C         52.39550        52.89107         0.96846
C         51.17525        52.15351         1.10012
C         52.42201        54.29582         1.03153
C         51.19993        55.03394         1.25868
C         52.42434        57.16579         1.06437
C         51.22300        56.43395         1.36661
C         52.40092        58.54653         0.91294
C         51.19006        59.34539         1.18474
C         52.22514        61.35779         0.24092
C         51.10518        60.67566         0.52082
C         54.98326        39.97292         0.02804
C         54.93265        41.37795         0.14387
C         53.67977        42.11640         0.11756
C         54.92335        44.17750         0.72050
C         53.65321        43.50917         0.39726
C         54.92269        45.67948         0.95167
C         53.63206        46.37745         0.83909
C         54.95607        48.53056         1.35833
C         53.63565        47.80604         1.20255
C         54.95404        50.06113         1.44259
C         53.68159        50.66954         0.86161
C         54.94348        52.89332         0.86356
C         53.66327        52.16461         0.76408
C         54.90815        54.30492         0.76309
C         53.66251        55.01434         0.86406
C         54.87733        57.12450         0.56743
C         53.66597        56.42901         0.82153
C         54.90320        58.62675         0.76947
C         53.58322        59.27604         0.32327
C         54.75602        61.52961         0.07128
C         53.55423        60.78933         0.68591
C         54.90728        62.93730         0.58245
C         57.43027        39.95298         0.21254
C         56.18566        39.28241         0.06652
C         57.43370        41.36438         0.27445
C         56.17978        42.08457         0.26304
C         57.42440        44.22788         0.36166
C         56.17019        43.47639         0.41252
C         57.42361        45.73787         0.43786
C         56.16619        46.46656         0.75043
C         57.44615        48.59443         0.75483
C         56.18938        47.81923         0.93679
C         57.40207        50.06504         0.89022
C         56.21545        50.73787         0.93893
C         57.35558        52.89257         0.44440
C         56.17168        52.19508         0.78085
C         57.35545        54.29938         0.32175
C         56.11962        55.01487         0.51771
C         57.28197        57.11815        -0.11825
C         56.07246        56.42166         0.37408
C         57.27867        58.61882        -0.22237
C         56.07473        59.37828         0.16942
C         57.28271        61.50684        -0.09808
C         56.06715        60.75541         0.12129
C         57.30160        62.90301         0.02747
C         56.08428        63.58284         0.46060
C         59.91614        37.13689         0.44006
C         58.72298        37.82338         0.33106
C         59.91064        39.94410         0.51662
C         58.68502        39.23608         0.33945
C         59.91433        41.38316         0.58118
C         58.67491        42.06774         0.46174
C         59.84740        44.17309         0.91716
C         58.67445        43.48009         0.58499
C         59.68427        45.54626         1.33117
C         58.65854        46.37048         0.95804
C         60.05423        48.64562         1.18254
C         58.76432        47.85404         0.84439
C         59.96148        50.04438         0.57814
C         58.71077        50.84600         0.89657
C         59.83449        52.83699        -0.17495
C         58.54586        52.06942        -0.00311
C         59.81340        54.28458        -0.16397
C         58.57842        55.00742         0.07572
C         59.77656        57.17094        -0.16782
C         58.58933        56.43086        -0.03858
C         59.75873        58.59931        -0.36234
C         58.56896        59.30822        -0.33590
C         59.80356        61.52715        -0.56627
C         58.51961        60.77649        -0.48022
C         59.82967        62.92027         0.01916
C         58.52239        63.65310        -0.14233
C         59.76019        65.73514        -0.51961
C         58.56009        65.03574        -0.30653
C         62.42305        35.69703         0.29172
C         62.41731        37.09205         0.50571
C         61.14971        37.81854         0.58452
C         62.37482        39.97269         0.90930
C         61.12850        39.22584         0.66196
C         62.39404        41.42452         0.69683
C         61.14458        42.12380         0.67185
C         62.38105        44.27549         0.59414
C         61.14148        43.54708         0.80005
C         62.45896        45.70664         0.51809
C         61.54506        46.60003         1.13504
C         62.36229        48.56560         0.00861
C         61.31526        47.91389         0.73876
C         62.30158        49.96744        -0.19717
C         61.05310        50.68730         0.04165
C         62.23803        52.79650        -0.75541
C         60.99936        52.10757        -0.33910
C         62.23419        54.30550        -0.64832
C         61.00266        54.99333        -0.26564
C         62.33345        57.14049        -0.38229
C         61.07771        56.44885         0.11861
C         62.31230        58.65057        -0.31885
C         61.02187        59.29215        -0.86456
C         62.26653        61.49101        -0.60230
C         61.08525        60.78601        -0.59050
C         62.26248        62.96230        -0.54062
C         61.05846        63.67524        -0.41621
C         62.23187        65.78081        -0.98136
C         61.01187        65.08112        -0.61626
C         62.20096        67.11761        -1.41640
C         64.83149        35.70350        -0.03789
C         63.60560        35.02325         0.03001
C         64.87396        37.10774         0.22271
C         63.65376        37.78116         0.50141
C         64.93254        39.97374         0.52216
C         63.70790        39.21317         0.82065
C         64.87932        41.38158         0.47974
C         63.61838        42.10556         0.55869
C         64.81503        44.19224         0.03485
C         63.59396        43.52981         0.34771
C         64.81319        45.56550        -0.48565
C         63.50581        46.36511        -0.25355
C         64.67480        48.48846        -0.84503
C         63.55075        47.84002        -0.30250
C         64.54372        49.85810        -1.16096
C         63.45091        50.62468        -0.67421
C         64.72291        52.74301        -0.37640
C         63.54590        52.07999        -0.62204
C         64.77608        54.23466        -0.72201
C         63.52061        54.97014        -0.20618
C         64.82133        57.10432        -0.86560
C         63.49030        56.45439        -0.52331
C         64.82002        58.60227        -0.65769
C         63.53189        59.31375        -0.96859
C         64.73417        61.47555        -0.59575
C         63.55240        60.79723        -0.66567
C         64.72812        62.93767        -0.88308
C         63.47297        63.67675        -0.73901
C         64.72717        65.78006        -1.22126
C         63.48610        65.07490        -0.95687
C         64.58492        67.07083        -1.78253
C         63.36223        67.73773        -1.87606
C         67.22052        32.95783        -1.11062
C         66.05381        33.62455        -0.79061
C         67.27578        35.59094        -0.03979
C         66.06263        34.96563        -0.28435
C         67.35982        37.06413         0.01159
C         66.11638        37.83697         0.19891
C         67.39690        40.00050         0.23150
C         66.15959        39.25135         0.31403
C         67.34536        41.39308         0.21783
C         66.10127        42.10673         0.29075
C         67.27429        44.31037         0.09984
C         66.05856        43.52008         0.12184
C         67.21206        45.75641        -0.10949
C         66.05470        46.35705        -0.52951
C         67.23403        48.60741        -0.59820
C         66.01140        47.79331        -1.07473
C         67.26847        49.94207        -0.18234
C         66.12037        50.62987         0.50812
C         67.23143        52.84799         0.00656
C         65.93809        52.16145         0.37316
C         67.18638        54.28749        -0.00558
C         66.01620        54.95749        -0.24254
C         67.24519        57.16848        -0.15367
C         65.92095        56.44991        -0.01698
C         67.25859        58.57019        -0.36906
C         65.99680        59.27467        -0.56902
C         67.23641        61.47529        -0.92320
C         66.03112        60.75119        -0.26556
C         67.22134        62.95713        -0.40877
C         66.03208        63.70822        -0.98608
C         67.23777        65.87585        -0.68169
C         66.02195        65.18383        -0.97149
C         67.34007        67.30358        -0.64230
C         66.55137        68.18267        -1.41604
C         67.65397        70.18793        -0.59037
C         66.66536        69.57102        -1.39018
C         69.72964        31.51399        -1.62990
C         69.72455        32.81990        -1.05108
C         68.49263        33.48800        -0.78219
C         69.83124        35.45627         0.17767
C         68.50211        34.78042        -0.08033
C         69.87759        36.91153         0.47758
C         68.71527        37.76883         0.14674
C         69.80566        40.13036         0.93702
C         68.78395        39.33323         0.10268
C         69.78577        41.53292         0.71491
C         68.62116        42.18618        -0.01201
C         69.71615        44.42965         0.38362
C         68.49190        43.67081         0.27851
C         69.73266        45.82584         0.18561
C         68.43961        46.59800         0.16066
C         69.77310        48.62007        -0.42456
C         68.52970        47.82938        -0.75954
C         69.73353        50.08190        -0.77060
C         68.46807        50.73467        -0.26294
C         69.69833        52.93249        -0.16667
C         68.44844        52.15117        -0.10040
C         69.70166        54.30976         0.05218
C         68.42572        55.02148         0.44433
C         69.65453        57.19739         0.16111
C         68.43396        56.48361         0.07881
C         69.63657        58.61469         0.10572
C         68.46279        59.29885        -0.23115
C         69.70254        61.53314        -0.07520
C         68.60279        60.72755        -0.73671
C         69.71604        62.96333        -0.16523
C         68.52250        63.71723        -0.47884
C         69.68823        65.82338        -0.02245
C         68.47205        65.11100        -0.38025
C         69.66872        67.21112         0.28458
C         68.34043        67.93160         0.30713
C         69.61123        70.04401         0.90578
C         68.51655        69.42903         0.16870
C         69.56422        71.39202         1.31774
C         72.14694        31.45599        -1.61490
C         70.90275        30.84900        -1.90750
C         72.18629        32.71109        -1.04985
C         70.99442        33.43939        -0.75383
C         72.27667        35.35781         0.22744
C         71.06884        34.75023        -0.19201
C         72.24216        36.50835         0.99902
C         71.05193        37.28247         1.11646
C         71.87715        40.48691         2.23447
C         70.90206        39.63817         1.67639
C         71.89468        41.82956         1.91249
C         70.86476        42.35359         1.11077
C         72.13328        44.46178         0.66955
C         70.92064        43.75633         0.70471
C         72.15442        45.81582         0.35309
C         70.95367        46.52635         0.15309
C         72.16552        48.73375         0.01558
C         70.94309        47.97695        -0.09175
C         72.17633        50.09495        -0.14502
C         70.98251        50.83081        -0.38835
C         72.16828        52.99511        -0.23864
C         70.95486        52.23337        -0.29633
C         72.15573        54.35332        -0.10390
C         70.92518        55.07268         0.04705
C         72.11742        57.28155         0.02118
C         70.91422        56.48481         0.15818
C         72.10862        58.63353         0.12418
C         70.86226        59.34839         0.58338
C         72.00788        61.56576         0.69708
C         70.84822        60.84464         0.34749
C         72.05575        62.93949         0.55641
C         70.91649        63.66444         0.13790
C         72.09433        65.83188         0.43420
C         70.90929        65.11118         0.14775
C         72.05904        67.18266         0.70949
C         70.82659        67.87776         0.72118
C         71.82213        69.85636         1.90843
C         70.76464        69.26832         1.19200
C         71.75283        71.18607         2.32292
C         70.62407        71.95664         2.02186
O         62.16267        53.64573        -1.96525
O         57.48955        45.10063        -0.87617
O         65.69037        67.66942        -2.40101
O         54.98384        44.75748         2.10148
O         69.11916        34.71692         1.27683
O         63.84085        45.76403        -1.54502
O         58.21609        48.23078        -0.45611
O         68.18143        37.41194        -1.19761
O         44.08020        52.46608         1.67693
O         65.49938        50.05642         1.39889
O         60.71094        46.07306         2.12641
O         59.04359        61.30078        -1.80092
O         53.73667        51.28003        -0.45754
O         49.15308        50.18852         2.38888
O         57.02099        57.76082        -1.42012
O         65.38350        63.21349        -2.18503
O         63.09746        39.55035         2.11797
O         71.13199        38.32256         2.02710
O         50.87243        59.35112         2.65546
O         54.31595        47.95991         2.54581
O         58.20452        51.55713        -1.32163
H         58.10543        52.31758        -1.93162
O         61.22723        56.47863         1.61243
H         60.42639        56.05361         1.99208
O         53.63674        60.96149         2.12392
H         52.80162        60.62650         2.52093
O         65.11024        56.88701        -2.26242
H         64.46207        57.43005        -2.76899
O         66.96578        61.47233        -2.33025
H         67.57126        60.81365        -2.74797
O         58.89540        51.32149         2.25786
H         59.11468        50.53314         2.81004
O         46.89036        54.44108         2.65944
H         47.56210        54.04619         3.25368
O         68.89422        42.19084        -1.44501
H         69.12917        41.25738        -1.68826
O         49.99116        56.90118         3.34021
H         50.56167        57.60546         3.72423
O         68.26715        47.13895         1.50764
H         68.30038        46.39295         2.14237
O         62.38844        58.98637         1.09132
H         61.94542        58.26879         1.60316
O         69.17705        60.50431        -2.07846
H         69.58825        61.34494        -2.37375
O         67.77951        67.71132         1.65584
H         68.40332        68.11672         2.29567
O         63.42518        59.19580        -2.42001
H         64.00385        59.87997        -2.81905
O         54.91778        50.41439         2.85482
H         54.56599        49.62616         3.33588
O         65.52546        56.64179         1.37309
H         66.16003        56.14078         1.93136
O         53.46450        59.13725        -1.11004
H         53.90320        59.91370        -1.53753
O         47.79560        48.90174        -1.42962
H         47.02435        49.41829        -1.77826
O         45.35035        50.27897        -1.71938
H         44.64035        49.79591        -2.19634
O         65.68294        52.58968         1.74804
H         65.20336        51.84159         2.17898
O         60.06042        48.79906         2.63578
H         60.98585        48.93511         2.92854
O         59.98508        62.68742         1.46724
H         60.08118        63.56302         1.89804
O         60.93727        59.12374        -2.29994
H         60.19295        59.69258        -2.60497
O         38.24417        52.31809         0.80016
H         37.37282        51.87029         0.74899
O         66.17823        60.75759         1.18405
H         65.43812        60.23232         1.55682
O         70.84934        59.21868         2.05168
H         70.78117        58.26196         2.25941
O         63.53731        54.82219         1.23642
H         62.89557        55.46888         1.61815
O         41.90986        48.51904         1.21377
H         41.08398        49.04650         1.25748
O         64.80009        54.26472        -2.17000
H         63.87828        54.09032        -2.48645
O         55.06802        58.75113         2.21217
H         54.79912        59.67031         2.46940
O         66.16934        47.67806        -2.51495
H         66.05201        48.57686        -2.89210
O         54.45710        61.64402        -1.36425
H         55.24915        62.02675        -1.80028
O         69.27573        39.59116        -1.25297
H         68.78666        38.97389        -1.84956
O         66.95230        63.01042         1.02002
H         67.65669        62.52070         1.49496
O         68.37673        55.00491         1.91834
H         68.18847        54.08094         2.19212
O         69.64928        50.13201        -2.26086
H         70.55333        49.95878        -2.60183
O         41.81406        51.07605        -2.32602
H         42.57377        51.69503        -2.37890
O         46.82363        55.00247        -0.95125
H         46.23904        55.56295        -1.50347
O         65.46321        50.44214        -1.99059
H         65.20843        51.37547        -2.16406
O         68.70502        47.35812        -2.10986
H         68.78160        48.15387        -2.68193
H         37.63483        49.08687        -1.23767
H         35.68781        50.39155        -2.00072
H         37.84805        54.10786        -1.54891
H         35.91055        52.85432        -2.42923
H         39.48240        48.29615        -1.89131
H         39.17427        54.99137        -0.10526
H         41.52040        47.04838        -1.39436
H         41.26832        56.21426         0.26613
H         44.94472        44.74019         0.18620
H         42.84176        46.00345         0.04775
H         45.04592        58.35696         0.59141
H         42.99904        57.16904         0.10085
H         46.60096        43.81629        -0.23476
H         46.57370        59.20562         1.37082
H         48.69435        42.58472        -0.23742
H         48.64216        60.41379         1.78189
H         52.41390        40.40535        -0.38124
H         50.32564        41.63980        -0.33755
H         52.18787        62.32884        -0.27451
H         50.11666        61.07262         0.24550
H         54.05451        39.39517        -0.07298
H         54.01797        63.45826         0.96570
H         56.15605        38.18737        -0.00585
H         56.16150        64.63409         0.77442
H         59.88642        36.04079         0.40564
H         57.79593        37.24589         0.22235
H         59.69850        66.82162        -0.66571
H         57.62053        65.60702        -0.33721
H         61.49131        35.11946         0.32256
H         61.25018        67.66336        -1.47368
H         63.57043        33.93662        -0.12099
H         63.32270        68.73769        -2.32665
H         67.14131        31.97744        -1.59941
H         65.09586        33.14983        -1.04034
H         67.77619        71.27900        -0.64534
H         66.04495        70.17292        -2.06580
H         68.77628        31.01829        -1.85635
H         68.67137        71.99680         1.10602
H         73.08084        30.92167        -1.83778
H         70.87627        29.84486        -2.35271
H         73.16401        33.16057        -0.83076
H         73.24243        34.86501         0.05411
H         73.16136        36.89846         1.45496
H         72.66628        40.04172         2.85368
H         72.69865        42.47677         2.28622
H         73.08116        43.94195         0.86476
H         73.12461        46.32577         0.29371
H         73.10433        48.22537         0.26814
H         73.12118        50.63056         0.01838
H         73.13458        52.48686        -0.35267
H         73.11187        54.89227        -0.09888
H         73.06452        56.78115        -0.22523
H         73.04375        59.19674        -0.01140
H         72.88781        61.02861         1.07607
H         72.98245        63.46363         0.82204
H         73.06150        65.31424         0.46938
H         72.99335        67.70754         0.94859
H         72.71523        69.26741         2.15845
H         72.58625        71.62735         2.88665
H         70.56950        73.00414         2.34913
