         297
 CSIRO Nanostructure Databank - Neutral Graphene Oxide Data Set
C         30.49277        31.77068         0.62419
C         30.43251        32.92156         0.15247
C         30.32241        35.95656        -0.59114
C         30.33328        37.19147        -0.60522
C         30.34228        40.44153        -1.41158
C         30.40564        41.65127        -1.67190
C         32.87253        29.16235         1.95775
C         31.81249        29.72203         1.64583
C         32.84490        31.69720         0.82990
C         31.63824        31.03081         1.06520
C         32.86411        33.02522         0.14179
C         31.57274        33.66615        -0.39572
C         32.67736        35.96738        -0.17780
C         31.55187        35.11466        -0.86632
C         32.74761        37.40819        -0.70028
C         31.41446        38.11126        -1.13090
C         32.65480        40.32734        -1.06331
C         31.33275        39.56752        -0.68706
C         32.66897        41.83337        -1.01744
C         31.55941        42.50814        -1.50538
C         32.79130        44.55963        -1.26334
C         31.76498        43.93565        -1.56334
C         35.83948        27.72232         2.54842
C         35.54916        29.10975         2.19246
C         34.21337        29.75726         1.94439
C         35.35445        31.89185         1.27390
C         34.19033        30.95568         0.93393
C         35.29665        33.33181         0.84802
C         34.06312        33.90707         0.22128
C         35.23625        35.92693        -0.55988
C         33.99459        35.22372        -0.15453
C         35.24016        37.38528        -1.02410
C         33.92065        38.09353        -0.78931
C         35.24950        40.33737        -0.96812
C         33.94329        39.56420        -1.09543
C         35.20892        41.84148        -0.72075
C         33.87137        42.49814        -0.34529
C         35.18715        44.82544        -0.13773
C         33.93349        44.09250        -0.47227
C         35.57857        46.21226        -0.49279
C         38.23947        27.68737         2.30669
C         36.89652        27.09350         2.38950
C         38.10021        29.12181         1.78498
C         36.76568        29.75455         1.63578
C         37.82994        31.81331         0.68433
C         36.74583        31.26786         1.60691
C         37.79782        33.27048         0.39389
C         36.59981        34.14364         0.80975
C         37.76853        36.05261        -0.37797
C         36.52270        35.27108        -0.21154
C         37.72402        37.40469        -0.51123
C         36.47354        38.17967        -0.61530
C         37.81947        40.31305        -0.57597
C         36.48054        39.55436        -0.64795
C         37.73670        41.78978        -0.10983
C         36.46848        42.58326        -0.27133
C         37.84745        44.73477        -0.15202
C         36.46262        44.03519         0.32169
C         37.92298        46.22311         0.26176
C         36.62571        46.74280        -0.06637
C         40.66825        24.81648         1.85883
C         39.68058        25.50029         2.16016
C         40.58608        27.52347         1.13618
C         39.52889        26.96114         2.07428
C         40.21583        28.74557         0.27806
C         39.29070        29.70299         1.04216
C         40.05014        31.64193        -0.58296
C         39.16006        31.09575         0.53961
C         40.31827        33.10525        -0.19368
C         39.13850        34.00350         0.26471
C         40.26830        36.04411        -0.86106
C         38.98358        35.19348        -0.70686
C         40.19097        37.33327         0.02142
C         39.03403        38.15083        -0.59660
C         40.10873        40.15651         0.72704
C         38.81503        39.45355         0.22778
C         40.08975        41.63842         0.99872
C         38.79741        42.46525         0.81270
C         40.16909        44.59349         1.09823
C         39.13181        43.86790         0.21628
C         40.26547        46.08293         1.13127
C         39.08103        46.85493         0.59265
C         40.43559        48.87852         0.92916
C         39.39665        48.24353         0.70791
C         43.15575        24.71910         1.05258
C         41.76192        25.13557         0.94537
C         42.98596        27.45127         0.45369
C         41.74336        26.67258         0.64164
C         42.84377        28.73410        -0.27811
C         41.47149        29.40409        -0.37498
C         42.65790        31.57322        -1.28788
C         41.39007        30.86792        -0.82425
C         42.69620        33.08929        -1.32625
C         41.55813        33.80114        -0.64325
C         42.74391        35.96149        -0.59880
C         41.56701        35.28570        -0.62359
C         42.75343        37.44348        -0.41734
C         41.46869        38.14004        -0.08578
C         42.71565        40.25775         0.59109
C         41.46794        39.38706         0.78938
C         42.70332        41.59684         1.28498
C         41.40572        42.34923         1.33502
C         42.64115        44.52366         0.48896
C         41.51841        43.89452         1.40234
C         42.75971        46.01504         0.86793
C         41.63315        46.73243         1.20969
C         42.98951        48.80953         1.02666
C         41.68210        48.29446         1.57021
C         44.16076        25.39123         0.82306
C         45.30284        27.20643        -0.49040
C         44.39919        26.86087         0.69828
C         45.38080        28.78583        -0.66428
C         44.09412        29.54697        -0.60012
C         45.28132        31.69166        -1.38780
C         44.01204        30.82013        -1.49466
C         45.28274        33.06203        -1.36299
C         44.00076        33.83967        -1.39352
C         45.29674        36.09167        -0.99513
C         44.00994        35.32157        -1.06471
C         45.32686        37.36014        -0.17901
C         44.02549        38.05034         0.10258
C         45.25343        40.13060         0.96021
C         44.00990        39.53261         0.38015
C         45.26115        41.58303         1.33901
C         43.98944        42.44091         1.45775
C         45.30835        44.49361         0.86968
C         44.01681        43.66660         0.51071
C         45.21869        45.93804         0.34985
C         44.06781        46.64889         0.55822
C         43.88493        48.06970         0.60904
C         47.68338        27.33649        -0.82612
C         46.73691        26.65478        -0.27732
C         47.77667        28.71319        -0.88664
C         46.54443        29.19417        -1.57342
C         47.90176        31.64716        -1.49755
C         46.54849        31.02882        -1.97785
C         47.89037        33.14479        -1.38488
C         46.56378        33.86256        -1.51658
C         47.91422        36.12631        -1.08448
C         46.59331        35.36733        -1.30396
C         47.90298        37.53029        -0.50783
C         46.59814        38.16557        -0.11924
C         47.86113        40.05394         1.09467
C         46.56620        39.36934         0.79135
C         47.85629        41.53507         1.38451
C         46.58130        42.26999         1.05367
C         48.02660        44.37373         0.31201
C         46.59813        43.67706         0.52482
C         47.68348        45.83592         0.22701
C         46.56568        46.35718         0.12009
C         49.83815        29.06486         0.58894
C         48.57084        29.60561         0.00879
C         50.24412        31.60606        -0.35038
C         49.00028        30.88174        -0.77134
C         50.31275        33.10803        -0.51121
C         49.07671        33.88424        -0.80552
C         50.49113        36.01347        -0.60427
C         49.21047        35.36624        -1.05148
C         50.49472        37.40907        -0.30047
C         49.19801        38.04713         0.09729
C         50.41068        40.24403         0.75385
C         49.19174        39.38747         0.79966
C         50.36084        41.60874         0.82359
C         49.13505        42.31575         1.34241
C         50.38544        44.37917         1.22960
C         48.97642        43.92631         1.43340
C         50.92537        29.60707         0.79347
C         52.48063        31.75243         0.45919
C         51.18567        31.08910         0.82635
C         52.59721        32.90482         0.02613
C         51.68394        33.74732        -0.83818
C         52.83842        36.01125        -0.38841
C         51.67741        35.23365        -0.58787
C         52.76796        37.24063        -0.10172
C         51.68666        38.11080         0.02925
C         52.77246        40.39166         0.36816
C         51.73252        39.41792         0.78874
C         52.75230        41.62263         0.37247
C         51.57960        42.50735         0.20160
C         51.42728        43.81409         0.90809
O         43.37733        40.30405        -0.69390
O         33.21879        39.87817        -2.32591
O         45.17398        40.56639         2.36245
O         45.08105        29.59125         0.47997
O         41.70039        31.02652        -2.23414
O         48.74156        35.96188        -2.28220
O         43.16152        33.60477        -2.58629
O         46.43969        30.98001        -3.28055
O         37.46814        42.55174        -1.32020
O         34.97276        32.90931         2.23094
O         46.52384        42.58096        -0.40138
O         41.94730        41.66146         2.51408
O         50.23361        30.77346        -1.52705
O         44.67667        37.24178         1.12859
O         48.60180        41.79881         2.60523
O         42.04256        38.25410        -1.39941
O         41.95211        28.57083        -1.45685
O         47.22074        38.47689        -1.39831
O         49.26138        38.13983         1.56786
O         39.72178        45.29940         2.28004
O         40.66700        27.71655         2.57494
O         37.36307        32.31098        -0.59891
O         34.10985        44.70631         0.83020
O         40.33950        36.45986        -2.19241
O         39.91405        30.81115         1.75067
O         38.39312        28.79166         3.21048
O         49.51033        33.67341         0.57883
O         35.92312        34.97911        -1.50150
O         46.53506        34.78551        -2.63236
O         48.37952        32.47086        -2.58683
O         34.86051        29.97590         3.19450
O         35.27251        37.38500        -2.54092
O         41.44045        33.22699         0.73451
O         41.37845        25.60296        -0.34096
O         35.36798        41.32299        -2.05567
O         39.82154        40.66461         2.06021
O         44.47398        36.17261        -2.18330
O         47.17769        39.23255         2.09447
O         32.39242        32.86707        -1.27593
O         38.10498        39.05500         1.41026
H         38.59279        38.29827         1.82102
O         39.40729        28.24960        -0.80413
H         40.01373        27.91145        -1.50378
O         31.36277        38.05650        -2.53327
H         31.45937        37.11753        -2.81514
O         41.60228        38.89168         2.14673
H         41.39130        39.65548         2.74386
O         46.36463        28.54692        -2.81419
H         46.39709        29.28546        -3.49597
O         39.90918        37.02670         1.37640
H         40.60577        37.41895         1.96355
O         41.60966        48.41705         2.95472
H         41.62791        49.36241         3.20709
O         36.42251        44.06368         1.73221
H         35.48580        44.13811         2.02278
O         39.42466        34.48957         1.57655
H         40.31261        34.15244         1.84317
O         39.32278        31.56705        -1.79960
H         39.96604        31.58861        -2.54623
O         44.17683        43.12334        -0.79032
H         43.62455        43.65454        -1.41630
O         39.41571        38.36060        -1.94326
H         38.68057        38.12446        -2.55246
O         31.11086        39.59489         0.70642
H         30.90151        40.50821         0.99023
O         39.83401        43.55847        -1.00281
H         39.19529        43.67491        -1.75210
O         42.25658        44.60445        -0.89089
H         41.38201        44.16658        -1.06189
O         51.91651        39.07134         2.16456
H         51.12713        38.55826         2.45270
O         51.93231        33.49614        -2.21107
H         52.75458        33.95431        -2.48100
O         44.00798        42.88432         2.81164
H         44.03304        42.08905         3.38632
O         32.33648        36.08828         1.22384
H         31.48299        36.57252         1.29474
O         48.59378        43.90516        -0.89866
H         47.94546        44.02080        -1.62541
O         51.29334        42.68234        -1.15574
H         50.51365        43.27747        -1.24864
O         36.80634        34.75569         2.08048
H         36.70541        34.05685         2.76659
O         50.72115        31.60048         2.03914
H         51.38966        31.46277         2.73995
O         47.69300        30.06204         1.03539
H         47.33510        29.30051         1.54020
O         36.62250        37.08495        -2.96995
H         36.66160        36.09367        -2.85313
O         41.90947        44.25312         2.72410
H         41.10191        44.53694         3.21533
O         37.84186        44.85037        -1.58695
H         37.19259        45.53621        -1.85705
O         45.45747        44.70992         2.27841
H         44.60591        45.00089         2.66911
O         38.29183        40.38488        -1.92848
H         37.65071        40.94145        -2.43043
O         43.97278        30.31419        -2.83362
H         44.72612        30.70913        -3.35429
O         33.74070        42.21170         1.06572
H         33.11433        42.85498         1.46304
O         48.40452        44.28007         2.65429
H         48.88352        43.83656         3.38487
O         34.44460        30.34869        -0.34593
H         34.21952        30.98051        -1.06213
O         31.77734        35.16369        -2.26440
H         31.52100        34.30956        -2.67302
O         38.70537        34.62296        -1.99467
H         39.19497        35.20096        -2.64354
O         37.10511        31.71251         2.93302
H         36.46362        31.31214         3.56414
O         44.77222        26.68092        -1.66237
H         45.24500        27.07836        -2.43584
O         45.00430        27.39122         1.86834
H         44.46524        27.14658         2.64882
O         38.27385        42.62431         2.12227
H         38.43482        41.79101         2.62079
