         720
 CSIRO Nanostructure Databank - Neutral Graphene Oxide Data Set
C         22.97350        27.51253        -1.43779
C         22.97697        28.84615        -1.54098
C         22.99160        31.71966        -0.33335
C         23.05326        32.93067         0.25287
C         23.05286        35.83103         1.08496
C         23.00756        37.18363         0.94296
C         22.94680        40.17930         0.56573
C         22.93488        41.54602         0.37008
C         22.88989        44.58362         0.22433
C         22.85230        45.92275         0.41197
C         25.55218        24.85325        -2.12440
C         24.33453        25.44357        -1.93581
C         25.46153        27.49444        -1.12501
C         24.19057        26.69475        -1.08970
C         25.47667        28.86324        -1.25035
C         24.21880        29.69974        -1.46625
C         25.44848        31.61674        -0.41247
C         24.18083        30.78758        -0.36049
C         25.53237        32.77778         0.31234
C         24.31557        33.52553         0.78340
C         25.52740        35.93162         1.13903
C         24.31280        35.06240         1.19549
C         25.46223        37.34204         0.94726
C         24.18314        38.03068         0.92689
C         25.35719        40.22649         1.14407
C         24.12251        39.43700         0.91331
C         25.30290        41.75260         1.18185
C         24.07725        42.38400         0.55756
C         25.30524        44.51516         0.72791
C         24.07371        43.77837         0.48173
C         25.28406        45.90416         0.89849
C         24.02474        46.75131         0.88279
C         25.16145        48.90205        -0.13537
C         24.13461        48.02472         0.02257
C         28.05289        23.27641        -1.82504
C         28.00824        24.68700        -1.62861
C         26.77353        25.40624        -1.62545
C         27.96217        27.51384        -1.17800
C         26.73265        26.72117        -0.88264
C         27.95665        28.90502        -1.11405
C         26.71253        29.57973        -1.15371
C         27.97047        31.79457        -1.01082
C         26.66398        31.04165        -1.03865
C         27.97256        33.01544        -0.18003
C         26.86175        33.28663         0.56609
C         27.97464        36.02769         0.79041
C         26.81480        35.38753         1.22266
C         27.92179        37.42721         0.63563
C         26.67070        38.06784         0.77256
C         27.84519        40.28563         0.32902
C         26.66973        39.53329         0.92588
C         27.82922        41.75737         0.66541
C         26.60457        42.41957         0.77165
C         27.79993        44.56707         0.74927
C         26.57403        43.83918         0.76273
C         27.75257        45.97708         0.86725
C         26.51595        46.54581         1.11949
C         27.72231        48.99212        -0.15946
C         26.49769        48.67587         0.39721
C         27.81838        50.16009        -1.00661
C         30.46616        23.22893        -1.39634
C         29.23404        22.58157        -1.69592
C         30.45360        24.64134        -1.21362
C         29.25054        25.34175        -1.34068
C         30.21394        27.41692        -0.27077
C         29.29443        26.84415        -1.35626
C         30.34952        28.90835        -0.50948
C         29.24207        29.61652        -0.93400
C         30.44625        31.76029        -0.73129
C         29.27892        31.06827        -0.97475
C         30.47441        33.27917        -0.75574
C         29.15052        33.91495        -0.29276
C         30.45338        36.03233         0.32739
C         29.15783        35.31779         0.23360
C         30.39710        37.46745         0.53219
C         29.17603        38.14931         0.58502
C         30.30843        40.29887         0.83247
C         29.15708        39.59858         0.63260
C         30.33812        41.76270         0.64637
C         29.05215        42.48621         0.66975
C         30.28957        44.62976         0.97911
C         29.05596        43.88621         0.76178
C         30.27475        46.12036         0.96748
C         28.97475        46.83763         0.80845
C         30.27728        48.66052        -0.47256
C         28.90820        47.99240        -0.20884
C         30.29648        50.05648        -1.02859
C         29.00657        50.71618        -1.33475
C         32.99836        20.43117        -1.61954
C         31.76153        21.13624        -1.59121
C         33.02594        23.22890        -1.19080
C         31.69982        22.49044        -1.32875
C         32.93387        24.60510        -0.56181
C         31.74875        25.42654        -1.02002
C         32.80698        27.38781         0.26825
C         31.55385        26.67486        -0.15314
C         32.86018        28.86329         0.13471
C         31.67549        29.54029        -0.46333
C         33.03992        31.79895        -0.47764
C         31.73592        31.03987        -0.71398
C         32.83985        33.20464         0.05372
C         31.68047        33.91288        -0.07399
C         32.90016        36.20035        -0.03550
C         31.64389        35.36089         0.16457
C         32.83850        37.52137         0.71739
C         31.62924        38.17596         0.78573
C         32.82765        40.34644         1.27641
C         31.52848        39.57663         1.34614
C         32.84233        41.79511         1.33428
C         31.60970        42.52903         0.92490
C         32.70884        44.75646         1.51493
C         31.49370        43.98822         1.12956
C         32.79966        46.18364         1.07482
C         31.55445        46.81342         0.62926
C         32.76790        48.94771         0.21040
C         31.52872        48.06462         0.07911
C         32.84843        50.13141        -0.79805
C         31.53281        50.87463        -0.97355
C         32.81761        52.78053        -1.79007
C         31.56909        52.14935        -1.45477
C         35.49396        18.96394        -1.52161
C         35.43688        20.32737        -1.16493
C         34.16101        21.00055        -1.14961
C         35.36205        23.05280        -0.23786
C         34.04342        22.33968        -0.47647
C         35.16877        24.29858         0.40839
C         34.02078        25.15067         0.07227
C         35.36771        27.42734         0.06208
C         34.12790        26.62706         0.47076
C         35.33350        28.81637         0.38062
C         34.06596        29.54148         0.26997
C         35.24785        31.64937         0.72659
C         34.12775        30.99887         0.24528
C         35.19147        33.12262         0.95755
C         34.13503        33.91033         0.24078
C         35.43967        36.14288         0.59419
C         34.18504        35.39739         0.17995
C         35.23321        37.47480         1.28660
C         34.03560        38.18188         1.19689
C         35.21152        40.32706         1.89268
C         33.99017        39.61524         1.45565
C         35.27346        41.80806         1.77097
C         34.01168        42.50465         1.56945
C         35.27572        44.74068         1.72812
C         33.97446        43.98491         1.75411
C         35.28650        46.12516         1.16230
C         34.01679        46.81840         0.94479
C         35.29770        49.07977         0.66532
C         34.08568        48.12083         0.15395
C         35.33710        50.43475        -0.14344
C         33.98871        51.10778        -0.39278
C         35.27618        52.82521        -1.82034
C         34.01687        52.23941        -1.41608
C         35.42194        53.57599        -2.95735
C         37.90853        18.94268        -1.30431
C         36.69498        18.28009        -1.56172
C         37.87696        20.32979        -1.00419
C         36.64761        21.03282        -0.87944
C         37.85288        23.19977        -0.42524
C         36.62058        22.44503        -0.49516
C         37.92962        24.64292        -0.41636
C         36.80607        25.51142        -0.91829
C         37.81011        27.51591         0.10089
C         36.61817        26.83382        -0.22046
C         37.76627        28.81971         0.63355
C         36.53835        29.52071         0.65669
C         37.63097        31.61788         1.45786
C         36.49789        30.94792         1.01312
C         37.55343        33.02746         2.08956
C         36.35154        33.84471         1.57337
C         37.66470        35.97505         1.50103
C         36.48364        35.29642         1.30473
C         37.65752        37.42533         1.44480
C         36.47261        38.12768         1.57367
C         37.77771        40.28770         1.85896
C         36.51170        39.55223         1.95449
C         37.73814        41.73359         2.32396
C         36.47898        42.46210         1.87572
C         37.81206        44.56527         1.35269
C         36.54593        43.94810         1.80523
C         37.80838        45.96519         0.76598
C         36.47953        46.72350         0.85718
C         37.80334        48.79501         1.13873
C         36.57678        48.18693         0.47468
C         37.76055        50.83603         0.23502
C         36.44843        51.22556        -0.27793
C         37.77243        53.07902        -1.40905
C         36.41006        52.64546        -0.84379
C         37.80236        53.99485        -2.58005
C         36.66552        54.20296        -3.31123
C         40.15326        15.91526        -0.65157
C         39.10213        16.64251        -1.07515
C         40.39984        18.82329        -0.75234
C         39.15884        18.12935        -1.22728
C         40.42405        20.32060        -0.62493
C         39.12750        21.09101        -0.81074
C         40.31359        23.14754        -0.08915
C         39.09364        22.49925        -0.38162
C         40.34765        24.57937         0.07984
C         39.11982        25.30879        -0.12817
C         40.28485        27.46601         0.51227
C         39.13078        26.83151        -0.23906
C         40.28799        28.98903         0.58830
C         38.97928        29.36041         1.37264
C         40.19456        31.59968         1.94513
C         38.89417        30.85878         1.71248
C         40.22511        33.10677         2.02729
C         38.88826        33.82705         2.05642
C         40.10738        35.93443         1.55536
C         38.91023        35.26734         1.71055
C         40.15519        37.41804         1.48336
C         38.90108        38.15942         1.07121
C         40.18834        40.27952         1.34885
C         38.95115        39.62321         1.47725
C         40.30465        41.70877         1.64103
C         39.04417        42.49224         2.00571
C         40.28534        44.55725         1.32828
C         39.01633        43.90347         1.53749
C         40.30879        46.02737         1.31313
C         38.97587        46.73802         1.42455
C         40.21012        48.90523         0.42119
C         39.02854        48.20463         1.04622
C         40.27534        50.45732         0.24601
C         38.98506        51.09281        -0.30583
C         40.25149        52.58953        -1.98026
C         39.03718        52.32676        -1.12831
C         40.28258        54.03732        -2.42722
C         39.08513        54.65010        -2.83893
C         40.31011        56.63936        -3.52380
C         39.12028        55.95043        -3.40913
C         42.61973        15.81141         0.13475
C         41.33242        16.54485        -0.00232
C         42.70094        18.70051         0.36633
C         41.39117        18.03238         0.04049
C         42.72235        20.19580         0.44083
C         41.51867        20.98813         0.09553
C         42.71911        23.07443         0.67838
C         41.50817        22.36913         0.19094
C         42.80388        24.54194         0.53556
C         41.57999        25.24304         0.32551
C         42.82395        27.45441         0.66772
C         41.54437        26.68736         0.65243
C         42.75269        28.85973         1.14712
C         41.56650        29.52062         1.23127
C         42.82386        31.70184         1.74195
C         41.53068        30.90765         1.78361
C         42.83021        33.22294         1.73594
C         41.43304        33.83692         1.59200
C         42.50540        35.91976         0.91062
C         41.35315        35.21629         1.42456
C         42.65694        37.32728         0.93763
C         41.44340        38.12952         1.24870
C         42.66884        40.27645         0.99985
C         41.37033        39.56528         0.71572
C         42.73067        41.66513         1.13895
C         41.52155        42.43647         1.23505
C         42.75067        44.57100         0.97898
C         41.51227        43.85664         1.24476
C         42.77092        45.90887         0.62906
C         41.56278        46.73259         0.86877
C         42.76426        48.76993        -0.07596
C         41.47767        48.11057         0.27881
C         42.71200        50.10758        -0.52845
C         41.50342        50.87589        -0.58336
C         42.73928        52.79280        -1.58506
C         41.51211        52.08415        -1.30935
C         42.73990        54.13371        -2.10475
C         41.50874        54.73887        -2.53292
C         42.75843        56.76664        -3.14176
C         41.52165        56.05970        -3.06817
C         43.81207        16.43712         0.11742
C         45.23778        18.65584        -0.08301
C         43.93313        17.91643        -0.01273
C         45.24178        20.10652         0.32912
C         44.01180        20.87779         0.41888
C         45.31666        23.04115         0.60006
C         44.04995        22.29395         0.73998
C         45.30670        24.48862         0.79359
C         44.04373        25.18657         0.74183
C         45.34916        27.33328         1.10465
C         44.09319        26.66334         0.73835
C         45.33112        28.78711         1.28493
C         44.03380        29.50130         1.66237
C         45.07052        31.61284         0.62891
C         44.05479        30.98708         1.27949
C         44.98043        33.05210         0.14095
C         43.77666        33.79190         0.69456
C         45.26517        36.11694        -0.06180
C         43.49804        35.07773         0.31248
C         45.16656        37.36276         0.61957
C         43.88273        38.01216         0.83528
C         45.16705        40.18557         1.46604
C         43.86337        39.45325         1.22962
C         45.19804        41.65401         1.26113
C         44.00933        42.34901         1.20050
C         45.20158        44.37811         0.41150
C         44.05478        43.86332         1.27552
C         45.22552        45.88111         0.26296
C         43.99372        46.59646         0.22827
C         45.17696        48.53973        -0.74082
C         43.94897        47.97678        -0.13294
C         45.21946        49.97902        -1.14281
C         43.92642        50.72138        -1.11374
C         45.21014        52.84799        -1.45760
C         43.96704        52.17719        -1.30440
C         45.20124        54.22454        -1.82306
C         43.95722        54.85284        -2.20208
C         43.92806        56.18755        -2.71836
C         47.69687        18.72777        -0.16542
C         46.57846        18.01354         0.04323
C         47.60510        20.15567        -0.66906
C         46.51818        20.88510         0.13992
C         47.76476        23.02666         0.32950
C         46.45330        22.36776         0.20728
C         47.80961        24.45504         0.79105
C         46.52726        25.19717         0.85987
C         47.76940        27.40190         0.72792
C         46.55164        26.64518         0.95959
C         47.72200        28.74535         0.35872
C         46.52221        29.53226         0.72055
C         47.55617        31.65548        -0.08773
C         46.26055        30.86417         0.03916
C         47.59064        33.02856         0.05265
C         46.33593        33.79923         0.49800
C         47.70354        35.88741         0.31677
C         46.45951        35.24396        -0.22264
C         47.66072        37.34196         0.56527
C         46.39609        37.99809         0.94665
C         47.74365        40.16979         1.41596
C         46.44150        39.38912         1.42017
C         47.67589        41.64459         1.28759
C         46.48622        42.35305         1.18395
C         47.69096        44.50268         0.79904
C         46.50967        43.76797         0.87590
C         47.70049        45.86216         0.33445
C         46.47415        46.50560         0.04856
C         47.79603        48.55809        -0.88060
C         46.48285        47.81582        -0.62972
C         47.69613        50.07827        -0.77293
C         46.49680        50.73622        -1.03659
C         47.66910        52.89879        -1.22964
C         46.45728        52.16223        -1.22221
C         47.62116        54.29163        -1.52757
C         46.43915        54.92370        -1.83971
C         50.22881        20.27506        -0.77277
C         48.92329        20.95432        -0.73729
C         50.25640        23.08399        -0.15027
C         48.95078        22.41813        -0.34636
C         50.29600        24.52593         0.06557
C         49.11439        25.19088         0.65349
C         50.19978        27.40638         0.06916
C         49.06399        26.70728         0.66949
C         50.13351        28.83100        -0.10745
C         48.90992        29.47256        -0.02359
C         50.04759        31.63662        -0.78113
C         48.73517        30.84682        -0.63963
C         50.01189        33.12823        -0.67246
C         48.80030        33.78792        -0.15159
C         50.19396        35.77819         0.72757
C         48.87380        35.16710         0.21648
C         50.23291        37.30276         0.65048
C         48.96652        38.05690         0.69500
C         50.18854        40.15002         0.89741
C         49.00404        39.47955         1.06453
C         50.14742        41.61808         0.75689
C         48.96064        42.36244         1.25869
C         50.23664        44.53841         0.65058
C         48.98587        43.85697         1.08065
C         50.21423        45.94325         0.48705
C         48.93875        46.62447         0.28400
C         50.11314        48.79370         0.14085
C         48.92819        47.96646        -0.07779
C         50.15169        50.19014        -0.33298
C         48.92229        50.82945        -0.67895
C         50.14987        52.92820        -0.90083
C         48.91426        52.23016        -0.93928
C         51.39216        20.95664        -0.57090
C         52.68581        23.16490         0.00674
C         51.42585        22.36738        -0.28943
C         52.64288        24.44549        -0.85556
C         51.40531        25.26101        -0.36329
C         52.25134        27.52022        -1.16263
C         51.29170        26.69808        -0.43715
C         52.52133        28.82060        -0.89835
C         51.46080        29.56965        -0.10533
C         52.54934        31.67259        -0.79350
C         51.38363        30.99550        -0.61092
C         52.57811        33.15421        -1.16998
C         51.30735        33.89261        -0.72068
C         52.69758        35.85196         0.11307
C         51.38897        35.22238        -0.07302
C         52.68807        37.34564         0.12667
C         51.41255        37.99986         0.60780
C         52.62460        40.16696         0.50609
C         51.42762        39.45154         0.65571
C         52.64287        41.59273         0.36894
C         51.38542        42.35633         0.40215
C         52.65211        44.50022         0.17483
C         51.44047        43.83429         0.48478
C         52.67195        45.91865         0.18093
C         51.44656        46.61905         0.33037
C         52.70083        48.81343         0.13350
C         51.44912        48.08180         0.38384
C         52.65454        50.21082        -0.09991
C         51.37481        50.89238        -0.33035
C         51.33682        52.28159        -0.63053
C         55.15665        23.08949        -0.08967
C         53.98778        22.41699        -0.07233
C         55.21124        24.52399        -0.33597
C         53.98959        25.17148        -0.79531
C         55.18868        27.33723        -1.21566
C         54.09226        26.40741        -1.37570
C         55.08485        28.71235        -1.29865
C         53.76040        29.52636        -1.47457
C         55.05764        31.74206        -1.20576
C         53.87767        30.91354        -0.75668
C         55.08006        33.14469        -0.95815
C         53.85902        33.83137        -0.69503
C         55.15770        35.87602        -0.12966
C         53.90260        35.17721        -0.21750
C         55.25571        37.20083         0.61157
C         53.93960        37.96631         0.70546
C         55.15039        40.16116         0.26112
C         53.92301        39.46148         0.67802
C         54.94979        41.42200        -0.25659
C         53.81468        42.25439         0.02370
C         55.25522        44.54120         0.01011
C         53.87581        43.73149        -0.13549
C         55.13374        45.96570         0.34825
C         53.93148        46.64600         0.23215
C         55.15330        48.83229         0.19485
C         53.92187        48.10891         0.22680
C         55.09655        50.23030        -0.03167
C         53.89176        50.89334        -0.19636
C         57.69229        24.64607        -0.01930
C         56.40746        25.23099        -0.36649
C         57.68893        27.42652        -0.67566
C         56.45531        26.62323        -0.89333
C         57.63117        28.89101        -0.87348
C         56.35468        29.50293        -1.32377
C         57.55536        31.75282        -0.83886
C         56.33076        31.01601        -1.36988
C         57.55897        33.17531        -1.42020
C         56.31077        33.88762        -0.95451
C         57.63532        35.94203        -0.47508
C         56.35272        35.23719        -0.54324
C         57.69240        37.30551         0.08923
C         56.43821        38.07668         0.19526
C         57.71473        40.22534         0.17785
C         56.43704        39.46216         0.15949
C         57.75819        41.65785         0.43668
C         56.76970        42.51715        -0.03655
C         57.62286        44.55784         0.91671
C         56.52888        43.85267         0.35852
C         57.61971        45.97030         0.89939
C         56.30876        46.71443         0.93169
C         57.63974        48.77620         0.46639
C         56.39595        48.14295         0.44661
C         58.80873        25.38133         0.19794
C         60.07599        27.57063        -0.10806
C         58.77277        26.88727         0.23011
C         60.06772        28.83658        -0.57177
C         58.82926        29.57691        -0.83921
C         60.01279        31.74027        -1.20680
C         58.86037        31.01534        -1.04607
C         60.01517        33.17528        -1.15284
C         58.85373        33.90400        -1.12913
C         60.04300        36.10861        -0.98883
C         58.82900        35.32885        -0.84941
C         60.11505        37.42543        -0.66672
C         59.00370        38.07847         0.03291
C         60.16353        40.26564         0.45754
C         58.94237        39.55631         0.17461
C         60.16990        41.52404         0.98759
C         58.91411        42.26332         1.12722
C         60.08852        44.62521         1.38461
C         58.85410        43.83429         1.31790
C         60.07343        45.96760         1.17649
C         58.83630        46.69005         0.97305
C         58.82646        48.08844         0.76697
O         35.15336        33.51143         2.37279
O         58.58002        37.39741         1.26421
O         48.25913        38.01346        -0.65304
O         28.82823        35.03633        -1.21305
O         44.48859        18.37179        -1.30289
O         54.64006        44.21308        -1.26837
O         43.25279        22.61500         1.94845
O         40.01316        42.18466         3.03258
O         44.18937        35.67299        -0.79269
O         40.50565        48.19381        -0.83766
O         58.66845        42.88864         2.42235
O         33.13513        44.43182         2.88087
O         41.22537        46.64321         2.30354
O         57.50772        26.72305        -1.94238
O         40.63894        26.90421         1.80009
O         40.10603        20.94712        -1.90384
O         39.65946        33.59915         3.28797
O         49.40840        25.94190         1.87494
O         43.57795        27.26836        -0.57428
O         48.74743        22.02824        -1.74729
O         34.52465        34.58036        -1.01309
O         36.18991        25.25863        -1.94449
O         31.23171        42.14929        -0.46832
O         24.28058        33.96891         2.16723
O         49.91731        32.45259        -2.00818
O         31.94218        30.10426        -1.81503
O         35.72026        39.81594         3.17100
O         50.67170        48.63614         1.49419
O         40.87726        17.30147         1.19517
O         37.74194        50.13870         1.44233
O         42.31561        31.15292         2.99259
O         35.08423        49.38369         1.98293
O         55.95033        41.98841        -1.04240
O         26.49603        47.87594         1.54918
O         26.21697        39.82515         2.28574
O         31.90386        26.70577         1.26581
O         35.99703        44.63773         3.00014
O         27.18149        31.77822        -2.23215
O         56.51904        30.26273        -2.59309
O         50.25666        35.41024         2.05708
O         39.42853        31.06276         3.07041
O         51.07135        35.11984        -1.52127
O         29.64622        46.88939         2.08881
O         53.00603        26.85506        -2.14576
O         46.35441        29.39335         2.16281
O         49.15822        43.24258         2.41346
O         42.66867        19.29783         1.68756
O         47.20222        39.60343         2.66767
O         44.45014        50.12137        -2.38617
O         40.26484        18.44493        -2.15589
O         40.89781        38.01143         2.60018
O         53.86747        38.68289         1.96209
O         26.97889        34.08802         1.69668
O         46.20432        20.31678         1.44373
O         45.68451        47.71123        -1.86393
O         50.43119        41.94495        -0.66500
O         47.98771        23.35169         1.74904
O         30.49367        48.86408        -1.94387
O         44.36785        39.73782         2.60400
O         38.68052        53.52052        -0.33047
O         44.84647        33.01339        -1.30111
H         45.12933        32.10947        -1.61023
O         52.76927        37.69319        -1.30662
H         52.08513        37.16662        -1.78058
O         32.14941        25.92801        -2.33422
H         31.39432        26.46624        -2.69918
O         27.62651        40.19286        -1.11363
H         28.38399        40.62476        -1.56279
O         48.35341        30.49672        -2.02675
H         48.64164        31.26729        -2.57874
O         26.76537        26.39102         0.57976
H         27.67006        26.61718         0.91481
O         24.19656        30.06686         0.89936
H         24.09846        30.71503         1.62848
O         45.81757        30.51715        -1.32078
H         46.64311        30.32547        -1.84879
O         52.59166        23.62530         1.38551
H         52.63190        22.84587         1.97712
O         53.56419        29.78287        -2.86963
H         53.55906        28.92210        -3.33857
O         52.39839        24.06260        -2.22162
H         52.44895        24.87907        -2.76623
O         41.20230        39.53483        -0.72799
H         40.35874        39.05621        -0.92397
O         38.87653        38.11123        -0.41108
H         37.99443        37.77206        -0.69574
O         51.80160        29.61981         1.30587
H         52.74532        29.91541         1.37085
O         33.50473        23.47935        -2.53298
H         33.10585        24.32457        -2.85063
O         44.95473        43.85980        -0.93252
H         45.55354        44.32235        -1.55638
O         23.74758        47.19544         2.23699
H         24.55560        47.65807         2.55276
O         43.97442        29.35940         3.09820
H         44.84269        29.64948         3.45632
O         52.62498        33.21484        -2.61728
H         51.71663        33.00726        -2.93661
O         37.62997        41.70194         3.77187
H         38.53826        41.57456         4.13030
O         34.32753        26.61457         1.93332
H         33.45428        26.39079         2.33486
O         38.95810        28.63271         2.60850
H         39.39277        29.19254         3.29434
O         29.83670        27.25808        -2.64979
H         29.17340        27.05050        -3.34104
O         47.10754        20.06228        -2.02503
H         47.44799        20.84401        -2.51820
O         34.38446        47.65805        -1.15421
H         34.29506        48.41383        -1.79249
O         57.33975        31.83720         0.59612
H         58.12449        32.26636         0.99848
O         55.59461        36.78986         1.96878
H         55.28723        37.51281         2.56573
O         40.51902        51.00496         1.56497
H         39.67163        50.95340         2.06199
O         57.46507        33.03739        -2.86253
H         57.36623        33.92965        -3.25371
O         36.12252        53.53341         0.26396
H         36.98341        53.72402         0.70216
O         36.09306        36.55914        -0.66842
H         35.86706        35.86508        -1.33309
O         33.65324        51.73297         0.86584
H         34.14005        51.26500         1.58293
O         54.21512        30.58445         0.63611
H         54.61226        31.37510         1.06218
O         46.62029        34.98346        -1.62885
H         45.84876        34.42878        -1.91010
O         29.48840        27.21550         0.96933
H         30.16039        27.16244         1.69033
O         43.32638        33.63866         3.03419
H         42.86630        33.08823         3.70722
O         30.67436        33.60387        -2.15933
H         30.09417        34.38390        -2.34797
O         24.33727        30.42002        -2.71294
H         24.48030        29.77521        -3.43550
O         28.58569        47.25060        -1.42330
H         28.97429        47.76368        -2.17330
O         32.88521        36.58514        -1.44037
H         33.18391        35.79518        -1.94680
O         38.64240        46.71034         2.83433
H         39.44827        46.96636         3.33507
O         46.34759        33.96406         1.90335
H         47.25805        34.16082         2.21082
O         32.57969        49.47513         1.53078
H         33.44205        49.40530         2.04125
O         33.47721        22.09348         0.85207
H         34.02107        21.40670         1.29164
O         48.16385        48.31283        -2.27169
H         47.31401        48.22075        -2.76679
O         38.13736        45.85512        -0.65220
H         37.41320        45.37342        -1.10497
O         58.40055        27.28929         1.58622
H         59.10107        26.97934         2.19710
O         31.26961        39.43672         2.79140
H         32.08922        39.10277         3.21592
O         55.99103        46.82598         2.37982
H         56.72090        47.33074         2.79880
O         36.01586        24.70141         1.36517
H         35.64725        25.50850         1.82067
O         37.26808        32.75232         3.47061
H         38.12649        32.50796         3.89498
O         44.37777        44.21442         2.64657
H         43.66483        43.88001         3.23051
O         33.14374        49.64704        -2.13927
H         32.31712        49.20404        -2.45772
O         39.38384        27.14629        -1.65105
H         38.68028        26.72661        -2.19327
O         25.16446        42.11569         2.59296
H         25.73799        41.49515         3.10015
O         36.90599        48.29703        -0.93416
H         37.58358        47.60732        -1.14436
O         40.10779        51.76435        -3.17775
H         40.94404        51.81294        -3.68721
O         23.99164        26.19774         0.26991
H         24.88722        26.08629         0.67220
O         33.62720        32.01462        -1.79586
H         32.90898        32.31850        -2.39292
O         40.19891        29.59586        -0.71837
H         39.97683        28.89296        -1.37734
H         22.02463        26.96140        -1.53525
H         22.03666        29.37279        -1.77074
H         22.02399        31.35333        -0.70942
H         22.13046        33.52449         0.32699
H         22.10320        35.28711         1.18511
H         22.01952        37.66580         0.91217
H         22.01602        39.62532         0.37664
H         21.99275        42.00890         0.04072
H         21.96909        44.06797        -0.08819
H         21.90394        46.45778         0.24687
H         25.59678        23.89990        -2.67424
H         23.41963        24.91535        -2.24293
H         25.01091        49.74569        -0.82856
H         23.20193        48.28241        -0.50810
H         27.12708        22.72561        -2.03824
H         26.89118        50.70545        -1.24098
H         29.21288        21.49301        -1.83535
H         29.02058        51.66385        -1.88920
H         32.98987        19.41356        -2.03301
H         30.85422        20.56840        -1.83786
H         32.78305        53.69611        -2.39824
H         30.64419        52.69024        -1.69982
H         34.57100        18.41457        -1.74481
H         34.56523        53.71512        -3.63293
H         36.68756        17.21290        -1.81606
H         36.69168        54.84204        -4.20542
H         40.10428        14.81581        -0.66916
H         38.22065        16.11210        -1.46360
H         40.32714        57.65247        -3.95059
H         38.18035        56.42079        -3.73050
H         42.57969        14.71355         0.20667
H         42.76374        57.78840        -3.54800
H         44.73996        15.84737         0.16848
H         44.86109        56.76069        -2.79815
H         48.68118        18.25219        -0.04567
H         46.63869        16.95537         0.33978
H         48.54690        54.88155        -1.53470
H         46.46495        55.99339        -2.08526
H         50.26027        19.18912        -0.93943
H         50.17749        54.00822        -1.09536
H         52.34055        20.40292        -0.62062
H         52.26231        52.87168        -0.62801
H         56.10124        22.53235        -0.01305
H         53.99425        21.32558         0.06831
H         56.02632        50.81362        -0.07663
H         53.91665        51.97537        -0.37997
H         57.75782        23.55212         0.07940
H         57.71228        49.84760         0.23103
H         59.75087        24.87742         0.46428
H         61.02647        27.05254         0.09211
H         61.02425        29.34708        -0.75466
H         60.98468        31.23507        -1.29395
H         60.98950        33.67391        -1.04845
H         60.90415        35.63591        -1.48178
H         61.00189        38.01436        -0.94232
H         61.11150        39.71261         0.38779
H         61.10412        41.96170         1.36539
H         61.02924        44.11284         1.63026
H         61.00970        46.54324         1.21898
H         59.77844        48.63746         0.78109
