         349
 CSIRO Nanostructure Databank - Neutral Graphene Oxide Data Set
C          3.96869         3.55701        -3.14208
C          3.25787         4.58305        -2.63845
C          3.99344         2.23551        -2.45798
C          2.62934         4.50440        -1.21688
C          1.36943         6.61118        -0.82665
C          1.26623         7.95143        -0.36183
C          2.51800         5.88346        -0.62776
C          2.34364         8.57688         0.21831
C          1.01662        10.73274         0.44170
C          1.04449        11.99479        -0.00945
C          2.24478         9.95965         0.84373
C          2.30987        12.74457        -0.16048
C          1.08139        15.07715        -0.36148
C          1.04965        16.41426        -0.20816
C          2.32700        14.28325        -0.24224
C          2.21898        17.16804         0.29982
C          2.36082        18.61009         0.03464
C          3.64457         2.24956        -0.99854
C          3.65989         3.66404        -0.50625
C          4.96830         1.66789        -1.40616
C          4.81672         4.29447        -0.09370
C          3.66403         6.46060         0.03646
C          3.59144         7.86391         0.40562
C          4.83237         5.70699         0.22915
C          4.72984         8.54702         0.84445
C          3.53412        10.70813         0.60032
C          3.55009        12.07781         0.28212
C          4.74287         9.99187         0.76146
C          4.77000        12.80126         0.27745
C          3.56027        14.95238         0.19183
C          3.51032        16.38917         0.51869
C          4.76895        14.24711         0.26873
C          4.76968        17.13837         0.54351
C          3.55587        19.24074         0.15555
C          4.79612        18.52948         0.42638
C          6.18620         2.24192        -0.77856
C          6.03241         3.45268         0.08141
C          7.35501         1.56259        -0.78262
C          7.26777         4.06792         0.63768
C          6.14385         6.43175         0.54265
C          5.95484         7.78287         1.33137
C          7.27142         5.49571         1.03826
C          7.21266         8.64142         1.18783
C          5.97700        10.69574         0.63341
C          5.99547        12.10253         0.46097
C          7.21314         9.98132         0.74437
C          7.24743        12.80724         0.45018
C          6.01328        14.92843         0.51596
C          5.99819        16.37104         0.76941
C          7.24463        14.24311         0.50206
C          7.33117        17.13228         0.73518
C          6.04252        19.22806         0.36163
C          7.27921        18.57163         0.41731
C          8.48407         1.88266         0.17364
C          8.57148         3.36433         0.51234
C          9.79392         1.31698        -0.27091
C          9.73248         3.92294         0.92920
C          8.41691         5.89109         1.64860
C          8.45309         8.11398         1.53759
C          9.78553         5.27924         1.60491
C          9.70255         8.56624         1.06972
C          8.45860        10.65759         0.58958
C          8.46505        12.08253         0.44226
C          9.69034         9.93057         0.64255
C          9.70973        12.78762         0.31380
C          8.50666        14.95554         0.45602
C          8.55913        16.38210         0.46303
C          9.70016        14.19088         0.27875
C          9.79301        17.11828         0.41431
C          8.49920        19.22508         0.15573
C          9.76769        18.59111         0.24962
C         11.00677         1.89597         0.07198
C         11.03893         3.17220         0.89282
C         12.21059         1.25793        -0.25128
C         12.13065         4.12084         0.40951
C         10.91412         6.25126         1.07116
C         10.90180         7.69580         1.02111
C         12.13263         5.57012         0.79272
C         12.14025         8.38194         0.81045
C         10.91954        10.64006         0.45728
C         10.94974        12.02889         0.27634
C         12.15969         9.88791         0.73114
C         12.21121        12.73933         0.10595
C         10.93682        14.93962        -0.12575
C         10.97369        16.34994         0.41296
C         12.21693        14.16942         0.05931
C         12.24643        16.90576         0.65175
C         10.88217        19.41578        -0.05935
C         12.24499        19.06960         0.21087
C         13.53730         1.94924        -0.29154
C         13.41296         3.44802         0.00326
C         14.62821         1.29947         0.51135
C         14.66508         4.17391         0.24838
C         13.37315         6.26407         0.68525
C         13.36377         7.67917         0.77487
C         14.63038         5.51696         0.52508
C         14.63947         8.46291         1.06650
C         13.45702        10.61583         0.39048
C         13.42684        12.04167        -0.04634
C         14.66289         9.76869         0.28496
C         14.63793        12.80076        -0.26668
C         13.42484        14.88018         0.07050
C         13.42461        16.29990         0.25429
C         14.68112        14.20236        -0.04457
C         14.65445        17.07341        -0.04504
C         13.42917        19.40862        -0.39826
C         14.66986        18.56693        -0.29654
C         15.85617         1.95940         0.64130
C         15.92400         3.37264         0.15539
C         17.01480         1.33578         1.10769
C         17.25100         4.05591         0.09012
C         15.91482         6.25653         0.43510
C         15.95249         7.69741         0.83081
C         17.22177         5.56218         0.10630
C         17.19831         8.37504         0.36141
C         15.74215        10.15139        -0.44296
C         15.83672        12.23662        -0.74691
C         17.12410         9.67193        -0.35271
C         17.13826        12.76633        -0.55277
C         15.93020        14.86856        -0.02384
C         15.93554        16.33219         0.23827
C         17.15421        14.16844        -0.20238
C         17.22316        17.07562         0.11947
C         15.98317        19.23667        -0.20395
C         17.18450        18.54379        -0.13617
C         18.34946         2.01727         1.30521
C         18.55608         3.29999         0.40726
C         19.51188         1.06780         1.00277
C         19.67759         4.21277         0.92490
C         18.50069         6.29993         0.31293
C         18.47593         7.65752         0.23320
C         19.72276         5.59326         0.61733
C         19.60577         8.59858         0.58289
C         18.38061        10.48879        -0.68043
C         18.36870        11.99931        -0.65517
C         19.73306         9.72925        -0.48744
C         19.59971        12.69342        -0.55791
C         18.41562        14.86516        -0.23390
C         18.45784        16.31326        -0.17343
C         19.59426        14.12563        -0.44761
C         19.64439        17.02268        -0.33976
C         18.43236        19.20237        -0.23605
C         19.64967        18.48164        -0.27573
C         20.79471         1.48836         1.30612
C         20.86001         3.68993         1.46901
C         22.06685         1.17631         0.77358
C         22.14130         4.28912         1.26844
C         20.91375         6.35049         0.80943
C         20.90181         7.83013         0.78825
C         22.14901         5.70341         1.00961
C         22.19252         8.53338         0.48944
C         20.93537        10.61028        -0.22397
C         20.90437        11.99668        -0.49830
C         22.15692         9.95062         0.02422
C         22.14819        12.69081        -0.63464
C         20.83174        14.86697        -0.79342
C         20.89086        16.33129        -0.55395
C         22.11693        14.12100        -1.04503
C         22.10202        17.00072        -0.43851
C         20.87399        19.15419        -0.26219
C         22.11399        18.44618        -0.21080
C         23.22678         2.03944         0.81000
C         23.28683         3.47074         1.12073
C         24.39535         1.43587         0.30876
C         24.66470         4.12678         1.27858
C         23.39732         6.40172         0.84970
C         23.42111         7.71557         0.43192
C         24.61856         5.71717         1.43259
C         24.68702         8.42934         0.20909
C         23.36774        10.64926        -0.10382
C         23.37554        12.00996        -0.46979
C         24.65620         9.90930        -0.03057
C         24.73293        12.60283        -0.85546
C         23.41333        14.94343        -1.23945
C         23.38058        16.30382        -0.51537
C         24.71007        14.13186        -0.99637
C         24.52569        16.97783        -0.18069
C         23.28680        19.12506         0.04912
C         24.56004        18.40040         0.34342
C         25.55269         2.18176        -0.16982
C         25.67889         3.65085         0.25128
C         26.76989         1.49165        -0.57728
C         27.02980         4.23295         0.22337
C         25.93680         6.41388         1.07505
C         25.94444         7.81060         0.66718
C         27.21137         5.62125         0.66647
C         27.15385         8.50401         0.43192
C         25.84429        10.67124         0.50640
C         25.85046        12.10042         0.06107
C         27.14816         9.92004         0.26835
C         27.08736        12.83949         0.48434
C         25.92828        14.87993        -0.58620
C         25.83318        16.30954        -0.17867
C         27.16166        14.23406        -0.08168
C         27.10479        17.09163        -0.23995
C         25.79432        19.15564        -0.13764
C         26.98947        18.56665        -0.36394
C         27.95414         2.17061        -0.77831
C         28.07675         3.57686        -0.42106
C         29.13194         1.47363        -1.24747
C         29.34940         4.23944        -0.61226
C         28.35760         6.37120         0.13930
C         28.38250         7.77259         0.20940
C         29.47385         5.64185        -0.37137
C         29.58912         8.48310        -0.11345
C         28.34710        10.63861         0.07045
C         28.33219        12.05284         0.08040
C         29.60318         9.91143        -0.10944
C         29.53278        12.81929        -0.19782
C         28.31549        14.93430        -0.16818
C         28.31650        16.32146        -0.79624
C         29.56833        14.25306         0.31002
C         29.62060        17.09300        -0.58306
C         28.22306        19.37565        -0.72418
C         29.54922        18.61515        -0.54397
C         30.32483         2.11184        -1.39879
C         30.46152         3.51749        -1.10432
C         31.68907         4.19314        -1.30972
C         30.70445         6.31557        -0.61419
C         30.77712         7.75085        -0.41232
C         31.80814         5.55171        -1.06989
C         31.98971         8.46468        -0.54452
C         30.83632        10.58916        -0.24592
C         30.88839        12.07193        -0.28033
C         32.02065         9.84581        -0.42258
C         32.04502        12.83108         0.16997
C         30.85928        14.98113         0.04968
C         30.82987        16.41717        -0.03929
C         32.03927        14.22144         0.19464
C         31.91768        17.21608         0.30327
C         30.66345        19.30959         0.11235
C         31.81076        18.63241         0.41976
O         12.50752         4.03637        -1.00826
O         26.63190        16.57853         1.05423
O         25.69768        14.57333        -1.99251
O         16.64161        16.72981         1.45287
O          2.60670        16.73870         1.64597
O         26.93776         6.00739         2.06307
O         24.86528         9.02570        -1.15768
O         16.62938         3.52951        -1.12907
O         30.20601        12.62901        -1.46193
O         21.21269        14.40555        -2.16441
O          6.35113         3.24616         1.51320
O         21.65768         8.42485         1.89254
O          6.70020        16.76437         2.00422
O          8.43957         7.04106         2.43792
O          2.49675        13.42651        -1.43934
O         25.15196         3.32980        -1.05253
O         17.68365         9.73609        -1.71905
O         12.93875        10.53785         1.78042
O         29.94958        17.90006        -1.76845
O         16.89544         8.23118         1.81787
O         15.60527        11.07580        -1.48511
O         16.42848         6.14183        -0.96143
O         14.66609        17.56938        -1.43618
O         20.86659         2.54831         2.24290
O         12.35287        18.14625         1.27549
O          5.71379         7.49298         2.72281
H          6.56890         7.20650         3.11723
O         20.07710         9.07945        -1.72993
H         19.24695         8.98521        -2.25667
O         29.48627        14.14291         1.78452
H         29.56044        15.04783         2.15626
O          2.13468         9.74706         2.28625
H          2.91121         9.21633         2.56707
O         23.47009        15.32564        -2.62949
H         22.54949        15.27870        -2.98343
O         28.23770        20.58498         0.03945
H         27.99637        20.37800         0.96528
O          1.34023         3.89693        -1.27887
H          1.45593         2.92125        -1.31902
O         25.64692        10.66644         1.96479
H         26.19347        11.41143         2.32710
O         24.44209         5.95891         2.86074
H         25.32050         6.20538         3.22862
O         14.54693         8.69572         2.48627
H         15.44886         8.93248         2.80335
O         19.25560         9.26393         1.81444
H         20.03954         9.19107         2.41015
O         18.35733         2.48650         2.67643
H         18.47066         1.71248         3.26563
O         11.41390         2.77043         2.23497
H         11.04312         3.43120         2.86637
O          8.14273         1.20632         1.42787
H          7.37258         1.70250         1.80277
O         10.80368        15.11417        -1.59749
H         10.84027        14.22039        -2.00075
O         13.95570         1.87477        -1.69509
H         13.51356         2.61525        -2.16733
O         19.07528         2.84828        -0.86306
H         18.31187         2.79959        -1.48749
O         25.02763        12.05510        -2.16982
H         25.57868        12.72842        -2.63585
O          6.63549         6.85329        -0.77029
H          6.55611         6.09878        -1.39097
O         25.16674         3.60351         2.52988
H         24.75668         4.15467         3.24018
O          2.58865         1.41556        -0.55747
H          2.61065         1.37077         0.42051
O         27.06085        12.95809         1.95808
H         27.93371        13.36159         2.21217
O         24.67901        18.33096         1.80549
H         25.43896        17.72410         1.98369
O         28.10244        16.16637        -2.21015
H         28.75331        16.74491        -2.67246
O         10.18271         5.05162         2.99201
H          9.96569         5.87369         3.48623
H          4.41190         3.63040        -4.14917
H          3.17140         5.52828        -3.19728
H          3.55445         1.42184        -3.06374
H          0.51689         6.14373        -1.33692
H          0.31329         8.48238        -0.49158
H          0.04472        10.23744         0.58557
H          0.10693        12.49942        -0.28582
H          0.19035        14.55411        -0.73788
H          0.12699        16.97328        -0.42657
H          1.47056        19.16842        -0.29204
H          5.00267         0.56690        -1.47675
H          3.62140        20.32244        -0.03471
H          7.43296         0.63000        -1.36332
H          6.02517        20.31121         0.16831
H          9.78969         0.36449        -0.82316
H          8.47282        20.29968        -0.08224
H         12.15713         0.28452        -0.76483
H         10.66663        20.39429        -0.51750
H         14.50065         0.27786         0.89606
H         13.43519        20.17105        -1.19205
H         16.93599         0.28861         1.44093
H         16.01157        20.33337        -0.29644
H         19.35625         0.28620         0.24570
H         18.46046        20.30007        -0.30486
H         22.17445         0.24865         0.19161
H         20.88709        20.25109        -0.18073
H         24.39381         0.34810         0.13660
H         23.25699        20.21401         0.20584
H         26.74068         0.39684        -0.68482
H         25.72282        20.25349        -0.19964
H         29.03766         0.40550        -1.49182
H         28.15753        19.67971        -1.80211
H         31.20549         1.56531        -1.76652
H         32.55471         3.62607        -1.68147
H         32.77381         6.03977        -1.25911
H         32.92727         7.93041        -0.74783
H         32.97773        10.37487        -0.53195
H         32.95047        12.28929         0.47818
H         33.00017        14.74052         0.33261
H         32.84946        16.74335         0.64350
H         30.55619        20.38053         0.33362
H         32.66294        19.17908         0.84886
