         490
 CSIRO Nanostructure Databank - Neutral Graphene Oxide Data Set
C         38.42284        49.54249         3.57515
C         37.44370        50.12712         4.37124
C         38.46239        52.28595         4.03205
C         37.46847        51.50347         4.61434
C         40.62009        48.24501         2.17382
C         40.55837        49.66427         2.26596
C         39.44973        50.31100         2.98409
C         40.43000        52.56601         2.49421
C         39.44701        51.71250         3.20976
C         40.67464        53.96061         2.92114
C         42.88013        48.32427         1.26530
C         41.72568        47.60106         1.66838
C         42.83374        49.75187         1.31175
C         41.64050        50.40963         1.76245
C         42.74040        52.69543         1.33521
C         41.53099        51.88645         1.71061
C         42.85613        54.09435         1.77987
C         41.78069        54.66051         2.55109
C         45.32414        45.57750         0.44241
C         44.15542        46.22094         0.73796
C         45.21346        48.41293         0.48407
C         44.06622        47.66237         0.79329
C         45.21676        49.81424         0.69867
C         44.03101        50.48202         1.01929
C         45.28578        52.70746         1.00760
C         44.01400        51.96337         0.96986
C         45.25536        54.12535         1.12222
C         44.03379        54.81057         1.49209
C         45.22994        56.94600         1.38993
C         44.08581        56.24005         1.62628
C         47.90748        44.25933        -0.03940
C         47.69041        45.64942        -0.30829
C         46.49706        46.28329         0.00791
C         47.67946        48.49765        -0.22051
C         46.35157        47.76153        -0.27997
C         47.57220        50.00902        -0.25560
C         46.55926        50.51053         0.79304
C         47.71171        52.72762         0.70749
C         46.49614        52.02159         0.81207
C         47.70504        54.16258         0.78496
C         46.47056        54.85819         0.99298
C         47.66865        57.01712         0.88257
C         46.47143        56.29074         1.07777
C         47.69243        58.46650         0.88010
C         50.18028        44.33543        -0.95783
C         49.07838        43.62937        -0.35294
C         50.07125        45.73559        -1.19686
C         48.72387        46.42164        -1.11567
C         50.00011        48.67590        -1.01151
C         48.80011        47.87520        -0.65755
C         50.11965        50.03392        -0.43770
C         48.91230        50.69487        -0.03325
C         50.22156        52.69200         0.64610
C         48.93515        51.99730         0.45040
C         50.19605        54.20224         0.63610
C         48.90288        54.90396         0.63837
C         50.13928        57.03572         0.53477
C         48.90674        56.32168         0.67493
C         50.19793        58.52069         0.83968
C         48.84153        59.17014         0.81821
C         52.94595        41.82489        -0.81274
C         51.79197        42.49550        -0.51155
C         52.39892        44.34609        -2.13279
C         51.40037        43.66682        -1.21646
C         52.45249        45.81831        -1.77661
C         51.26543        46.47207        -1.44839
C         52.55442        48.65835        -1.23998
C         51.26327        47.96031        -1.41895
C         52.57892        49.95563        -0.73370
C         51.37812        50.63103        -0.33567
C         52.61140        52.81989        -0.25930
C         51.53554        51.95491         0.38234
C         52.54346        54.22188        -0.23643
C         51.39232        54.94225         0.20930
C         52.56148        57.12735        -0.04342
C         51.33653        56.35925         0.19873
C         52.54913        58.52750        -0.02983
C         51.20881        59.22983        -0.08646
C         52.50620        61.35713         0.15789
C         51.32340        60.70587         0.17167
C         54.93305        40.01727        -1.67694
C         54.96534        41.37113        -2.37128
C         53.62235        42.11889        -2.13144
C         54.94318        44.29904        -2.12056
C         53.73511        43.63133        -2.13877
C         54.96698        45.77213        -2.30589
C         53.65260        46.57437        -2.11622
C         54.97248        48.65289        -1.72397
C         53.76050        47.98787        -1.67381
C         55.06731        50.02650        -1.25910
C         53.91391        50.62369        -0.46265
C         54.99599        52.84196        -0.85185
C         53.83160        52.14227        -0.60867
C         55.01042        54.29804        -0.98776
C         53.69314        55.02280        -0.70102
C         55.00400        57.13317        -0.40006
C         53.77377        56.44448        -0.33685
C         55.01969        58.54519        -0.18545
C         53.77470        59.25175        -0.08491
C         55.00533        61.38528        -0.02819
C         53.77303        60.67305        -0.00179
C         55.03452        62.80969        -0.08941
C         57.36972        39.94948        -1.97156
C         56.07271        39.36240        -1.45133
C         57.37801        41.46006        -1.76932
C         56.20955        42.16102        -1.95770
C         57.44200        44.32485        -1.99588
C         56.19777        43.60177        -1.98674
C         57.43729        45.79686        -2.05621
C         56.22040        46.49162        -2.15433
C         57.47132        48.66337        -2.00503
C         56.18187        47.98340        -2.37250
C         57.43840        50.16262        -2.08914
C         56.22414        50.74313        -1.37861
C         57.49542        52.95753        -1.16677
C         56.31143        52.12025        -0.74806
C         57.50914        54.32842        -0.96652
C         56.26797        55.04396        -0.80611
C         57.50346        57.14050        -0.46457
C         56.25484        56.42456        -0.59934
C         57.48623        58.50438        -0.14677
C         56.25802        59.24309        -0.08148
C         57.46913        61.41695         0.07067
C         56.25285        60.67622         0.00550
C         57.46800        62.82337         0.02513
C         56.21945        63.50172        -0.08786
C         59.81889        37.13831        -1.29101
C         58.66261        37.79009        -1.53570
C         59.89560        39.95333        -1.50495
C         58.56601        39.26932        -1.30079
C         59.87885        41.36812        -2.04438
C         58.67092        42.17321        -1.43945
C         59.91172        44.30066        -2.18399
C         58.64813        43.61960        -1.89973
C         59.92816        45.83479        -2.12511
C         58.65548        46.53155        -1.96699
C         59.94953        48.68995        -1.85217
C         58.66523        47.97335        -1.90016
C         59.98596        50.09317        -1.85141
C         58.70446        50.80353        -1.49422
C         60.00630        52.97288        -1.38183
C         58.71100        52.31198        -1.77177
C         60.00574        54.37448        -1.13029
C         58.76674        55.06721        -0.94686
C         60.01356        57.14842        -0.50313
C         58.76522        56.44553        -0.63497
C         60.03901        58.52258        -0.11894
C         58.75540        59.17341         0.19038
C         60.02182        61.38929         0.14905
C         58.74147        60.70273         0.30426
C         60.03865        62.88128        -0.11622
C         58.70964        63.57223         0.13577
C         59.95008        65.67179         0.39963
C         58.72579        64.92577         0.35380
C         62.24144        35.76837        -0.37889
C         62.22256        37.18153        -0.62727
C         61.04305        37.85099        -0.94731
C         62.19126        40.07777        -0.55731
C         61.03334        39.29691        -1.12143
C         62.32533        41.47047        -1.09790
C         61.21560        42.08546        -1.83804
C         62.34717        44.33667        -1.38196
C         61.21994        43.59248        -1.96372
C         62.32044        45.79216        -1.40003
C         61.18481        46.51867        -1.73156
C         62.37184        48.68700        -1.50035
C         61.18190        47.97088        -1.71312
C         62.44391        50.11350        -1.65242
C         61.19810        50.82930        -1.80012
C         62.42201        53.02051        -1.78612
C         61.18207        52.25975        -1.62607
C         62.47068        54.42445        -1.36278
C         61.24666        55.08516        -1.04954
C         62.49250        57.18889        -0.66124
C         61.25216        56.47471        -0.72849
C         62.50635        58.57845        -0.30644
C         61.24784        59.24075        -0.00364
C         62.47993        61.41317         0.41337
C         61.20621        60.67926         0.19461
C         62.49658        62.88698         0.38606
C         61.16989        63.54811         0.67472
C         62.42803        65.76687         0.47452
C         61.16709        65.04810         0.48414
C         62.44395        67.17664         0.52665
C         64.60739        35.80903         0.27850
C         63.37149        35.11048         0.01508
C         64.68186        37.18632         0.00735
C         63.55629        37.87653        -0.71042
C         64.65155        40.08313        -0.25699
C         63.51127        39.35826        -0.50414
C         64.64331        41.53487        -0.25048
C         63.45623        42.20915        -0.76635
C         64.50954        44.43921        -0.18261
C         63.44564        43.64977        -0.89991
C         64.70039        45.80495        -0.77950
C         63.58160        46.47826        -1.18091
C         64.85814        48.65425        -0.83876
C         63.58147        47.95279        -1.12317
C         64.88960        50.19035        -0.86704
C         63.67626        50.79387        -1.54366
C         64.99781        52.98707        -1.58662
C         63.76070        52.22075        -1.83475
C         64.93883        54.38606        -1.49277
C         63.70229        55.10775        -1.30064
C         64.93325        57.25054        -0.97794
C         63.71825        56.51446        -0.96411
C         64.95096        58.63715        -0.69601
C         63.74005        59.28032        -0.31466
C         64.97248        61.50962        -0.06962
C         63.78792        60.68088         0.16407
C         64.93795        62.88845         0.07991
C         63.67517        63.59704         0.29860
C         64.85429        65.80879         0.18995
C         63.65820        65.06693         0.33506
C         64.86536        67.22434         0.30755
C         63.63061        67.88570         0.47465
C         66.84981        33.08812         1.56572
C         65.75116        33.72714         1.04553
C         66.89723        35.88380         1.22522
C         65.74315        35.13623         0.84292
C         66.91389        37.29442         1.02185
C         65.84077        37.91712         0.36836
C         67.13290        40.14212         0.37661
C         65.92293        39.35739        -0.00126
C         67.03688        41.61839         0.46258
C         65.79651        42.26934         0.10730
C         66.88544        44.43920         0.50778
C         65.78757        43.70237         0.09046
C         66.96299        45.88024         0.25671
C         66.10715        46.36037        -0.89328
C         67.32487        48.67282        -0.61574
C         66.15258        47.89959        -1.20994
C         67.35587        50.04815        -0.70700
C         66.21371        50.76858        -1.41383
C         67.38202        52.95212        -0.99456
C         66.21335        52.28078        -1.29754
C         67.51711        54.35903        -1.36800
C         66.20165        55.12526        -1.60541
C         67.50783        57.33482        -1.23253
C         66.18546        56.61171        -1.43825
C         67.43359        58.70613        -0.66841
C         66.22208        59.35543        -0.61745
C         67.46333        61.56020        -0.24027
C         66.19333        60.87015        -0.67797
C         67.41718        62.99659        -0.13046
C         66.16591        63.64464        -0.08021
C         67.43442        65.88831         0.01232
C         66.10292        65.09965        -0.14124
C         67.36305        67.29481         0.42695
C         66.12189        67.97593         0.40940
C         67.32305        70.05197         0.87259
C         66.12859        69.36448         0.65068
C         69.19595        31.69843         2.62114
C         69.20304        33.09960         2.42003
C         68.02826        33.80305         1.92734
C         69.24181        35.95412         2.10273
C         68.04477        35.20536         1.77189
C         69.25338        37.36912         2.00172
C         67.97062        38.11595         1.73088
C         69.31933        40.20630         1.50795
C         68.21379        39.49196         1.15407
C         69.48369        41.65083         1.06232
C         68.14301        42.33870         0.87343
C         69.13175        44.51829         1.50693
C         68.07571        43.77051         0.97912
C         68.86772        45.97354         1.80973
C         67.99751        46.61075         0.74426
C         69.38802        48.76180         0.87742
C         68.33037        47.94870         0.19444
C         69.40481        50.21826         0.64557
C         68.42507        50.82735        -0.08716
C         69.59127        53.07402         0.26965
C         68.29786        52.33275         0.02515
C         69.71098        54.44307        -0.06038
C         68.89334        55.00680        -1.21386
C         69.97067        57.29416        -0.58841
C         68.87930        56.60541        -1.38386
C         69.99571        58.80634        -0.68442
C         68.67606        59.36088        -0.09589
C         69.88780        61.58534         0.09900
C         68.65879        60.87712        -0.13826
C         69.87549        62.98886         0.25999
C         68.64860        63.72188         0.09759
C         69.82576        65.81868         0.70690
C         68.65042        65.11880         0.26713
C         69.77534        67.20113         0.96083
C         68.56687        67.96499         0.77952
C         69.84061        70.18495         1.17585
C         68.54420        69.37955         0.93935
C         69.86127        71.41917         0.31938
C         71.50609        31.74285         3.32527
C         70.32543        31.02936         3.06716
C         71.53747        33.11652         3.14175
C         70.39642        33.82372         2.69219
C         71.57958        36.02367         2.79874
C         70.41556        35.26744         2.52514
C         71.58248        37.40133         2.69357
C         70.41152        38.10235         2.32001
C         71.39877        40.34453         2.78503
C         70.40992        39.56366         2.23089
C         71.35188        41.77332         2.71246
C         70.43124        42.44067         1.94929
C         71.38257        44.71149         2.41327
C         70.34647        43.90053         1.95888
C         71.26280        46.13834         2.46355
C         70.09458        46.77610         2.16482
C         71.01262        49.10127         2.77400
C         69.86888        48.27018         2.24635
C         71.27044        50.33855         2.33187
C         70.67795        50.91059         1.06050
C         71.72281        53.16232         1.42147
C         70.61682        52.42257         0.98499
C         71.80404        54.52532         1.17187
C         70.84160        55.16859         0.37147
C         72.15612        57.30000         0.48945
C         70.96395        56.60110         0.06392
C         72.25925        58.66299         0.43904
C         71.15452        59.46040         0.03931
C         72.29780        61.57401         0.63337
C         71.12195        60.84901         0.24952
C         72.28277        62.92930         0.79372
C         71.08096        63.69507         0.61924
C         72.25323        65.82460         1.20712
C         71.05757        65.08513         0.85252
C         72.23353        67.14310         1.49895
C         70.95525        67.92482         1.58288
C         71.93636        69.54081        -0.07630
C         71.01379        69.27411         0.91798
C         71.87094        70.71869        -0.84229
C         70.82034        71.64558        -0.62849
O         40.33077        52.38785         1.03333
O         64.10101        48.24101         0.32908
O         55.10943        41.12254        -3.75646
O         66.97993        39.62511        -1.01129
O         63.09156        52.68380        -3.04385
O         67.01414        54.64725        -2.71913
O         58.70851        59.83861         1.49324
O         54.16092        46.25205        -3.46478
O         63.85732        37.74411        -2.26357
O         43.11255        52.49201        -0.06838
O         50.33072        53.42212         1.92010
O         59.95629        45.09709        -3.40715
O         66.81516        65.65299        -1.29583
O         50.38681        48.57612        -2.42398
O         46.02446        47.90204        -1.67922
O         54.14312        54.77966        -2.07244
O         63.24917        60.83928         1.53116
O         66.80967        57.32890        -2.54258
O         69.74488        47.96647        -0.29488
O         61.64618        42.74391        -3.08344
O         58.83993        42.18375         0.00617
H         58.65508        41.25767         0.32119
O         57.40547        39.71422        -3.38845
H         56.59615        40.17563        -3.76787
O         69.24614        56.83657        -2.77393
H         68.39910        56.83943        -3.28681
O         63.95030        44.68584         1.16874
H         63.38483        45.48693         1.12117
O         52.73995        41.70369        -3.18324
H         53.36696        41.38573        -3.89474
O         66.20757        47.94972        -2.65534
H         66.46743        48.85931        -2.95263
O         58.69597        50.58628        -0.05905
H         57.96079        51.09311         0.37710
O         67.54608        52.52904         1.28611
H         66.73902        51.96581         1.24253
O         68.69501        58.98143         1.31468
H         67.93705        59.41433         1.76116
O         59.63229        41.25171        -3.45351
H         60.30296        41.80313        -3.92313
O         52.05266        51.60049         1.71510
H         51.73295        52.31450         2.32239
O         70.10520        41.63013        -0.26152
H         69.49180        41.16660        -0.87135
O         58.31320        39.46401         0.15156
H         59.03552        39.00625         0.63603
O         66.32596        50.55107        -2.84748
H         65.68713        51.14027        -3.30401
O         68.77051        48.52809         3.16909
H         68.25780        47.68844         3.29294
O         50.73096        58.65912         2.19061
H         50.11416        58.20936         2.80526
O         47.09616        50.33368        -1.57309
H         46.57732        49.53228        -1.89219
O         47.11519        50.09812         2.08255
H         46.51148        50.40779         2.78951
O         70.09020        59.24175        -2.05927
H         69.87364        58.46408        -2.63708
O         57.31881        50.47564        -3.50635
H         56.74791        49.77719        -3.92235
O         66.65658        45.63149        -2.02410
H         66.59159        46.23114        -2.80727
O         69.64105        54.48493        -2.33835
H         69.11385        54.65732        -3.14896
O         50.68646        59.06431        -1.43651
H         51.32289        59.47047        -2.06113
O         56.00808        48.18577        -3.83365
H         55.24662        47.60790        -4.10102
O         48.20541        46.46943        -2.47332
H         47.34480        46.98823        -2.41832
O         56.49478        51.91054         0.71481
H         55.75418        51.30392         1.00672
O         65.26811        37.69172        -2.45903
H         65.55327        38.63970        -2.48479
O         58.68004        52.62249        -3.19703
H         58.00084        52.05198        -3.63389
O         71.63120        50.54315         0.00184
H         71.47076        49.60379        -0.23767
O         61.78432        40.24023         0.86885
H         62.47348        40.78521         1.30792
O         60.88866        63.28907         2.07833
H         61.68439        63.51797         2.60168
O         69.81577        70.62771         2.55939
H         70.00010        69.83156         3.11392
O         64.87283        50.65237         0.51564
H         64.31951        49.99616         1.00772
O         60.35124        63.05871        -1.52790
H         59.56422        62.80527        -2.05345
O         54.27195        50.34937         0.93629
H         53.53217        50.72030         1.49143
O         68.02367        45.94836         3.04094
H         68.50617        45.41922         3.71218
O         66.08197        61.13080        -2.12551
H         66.19713        62.09613        -2.26122
O         51.87965        44.31794        -3.49134
H         52.51508        44.81563        -4.05231
O         70.65674        68.11010         3.01254
H         70.56459        67.21888         3.41084
O         67.37565        38.38101         3.06254
H         67.29680        37.51701         3.52103
H         38.37677        48.45796         3.41318
H         36.65455        49.50321         4.81305
H         38.45271        53.37052         4.20588
H         36.69916        51.97035         5.24435
H         39.77181        47.63347         2.50623
H         39.93725        54.45219         3.57106
H         41.71205        46.50505         1.60975
H         41.88576        55.69301         2.91367
H         45.34162        44.47879         0.48219
H         43.27758        45.61446         0.99824
H         45.19746        58.04064         1.46681
H         43.16542        56.78858         1.86791
H         47.11241        43.67723         0.44795
H         46.74038        59.01431         0.90921
H         49.18756        42.55513        -0.15206
H         48.79274        60.26827         0.83210
H         53.32348        41.05003        -0.12791
H         51.19582        42.18017         0.35908
H         52.50647        62.44538         0.30999
H         50.39814        61.28746         0.29158
H         53.95830        39.55275        -1.46308
H         54.09651        63.37443        -0.16547
H         56.07742        38.36109        -0.99474
H         56.19566        64.59671        -0.16288
H         59.86095        36.04961        -1.43536
H         57.76973        37.23713        -1.86053
H         59.87320        66.76717         0.35733
H         57.78884        65.48779         0.47061
H         61.30575        35.19831        -0.45904
H         61.50466        67.73296         0.64058
H         63.30844        34.03133         0.20533
H         63.58894        68.97870         0.55918
H         66.81137        31.99752         1.68151
H         64.87830        33.12462         0.76328
H         67.29040        71.14027         1.01886
H         65.19487        69.94077         0.64287
H         68.28640        31.11502         2.42761
H         69.08112        72.17351         0.49642
H         72.40335        31.21430         3.67551
H         70.29617        29.94126         3.21644
H         72.47170        33.65226         3.35526
H         72.50659        35.52162         3.10422
H         72.50841        37.95203         2.90740
H         72.21444        39.88782         3.36202
H         72.07532        42.33632         3.32049
H         72.34163        44.26644         2.71069
H         72.14747        46.72211         2.75903
H         71.52903        48.72888         3.67310
H         72.06439        50.92075         2.82451
H         72.54235        52.66847         1.96026
H         72.67249        55.07099         1.56031
H         73.01931        56.72712         0.84876
H         73.18198        59.13514         0.80320
H         73.24851        61.03997         0.76069
H         73.21786        63.43454         1.06692
H         73.21907        65.30140         1.22130
H         73.16352        67.65641         1.78446
H         72.74704        68.82021        -0.26602
H         72.63435        70.92056        -1.60520
H         70.79353        72.56884        -1.22530
