         576
 CSIRO Nanostructure Databank - Neutral Graphene Oxide Data Set
C          6.07897        18.82860         0.18885
C          5.99488        20.20759         0.20223
C          4.87616        20.91183         0.78880
C          5.82658        23.07289         0.16745
C          4.80692        22.27515         0.81655
C          5.94507        24.45302         0.38761
C          8.41424        14.67047        -0.65603
C          8.41739        16.07604        -0.70204
C          7.24095        16.78520        -0.38782
C          8.38209        18.94120        -0.79991
C          7.22482        18.17963        -0.35355
C          8.27679        20.35695        -0.86035
C          7.04186        20.96255        -0.45286
C          8.54937        23.44167        -0.82815
C          6.75472        22.32994        -0.62674
C          8.40167        24.71650        -0.20293
C          7.10915        25.28695         0.17116
C          8.22759        27.51494         0.15394
C          7.06742        26.62653         0.53503
C          8.30968        28.85436         0.84704
C         10.85737        10.39522        -0.62463
C         10.83108        11.78443        -0.52068
C          9.63739        12.53033        -0.66039
C         10.85908        14.69227        -0.78781
C          9.61734        13.94261        -0.68543
C         10.84873        16.07069        -1.10459
C          9.62588        16.81631        -1.02407
C         10.76676        19.03264        -1.67541
C          9.58425        18.22369        -1.13091
C         10.78706        20.37640        -0.89576
C          9.51779        21.19548        -1.26946
C         10.84557        23.14056         0.00597
C          9.59502        22.58568        -0.63983
C         10.85106        24.66531         0.02376
C          9.61713        25.34613         0.11815
C         10.83686        27.54740         0.35303
C          9.55996        26.78009         0.44172
C         10.73907        29.02519         0.11034
C          9.40697        29.74276         0.53652
C         10.84941        31.74760         1.14021
C          9.58544        31.10665         1.02672
C         10.92134        33.13083         1.54794
C         13.32407         5.99709        -0.19634
C         13.25888         7.48186         0.05403
C         12.04239         8.23324        -0.43174
C         13.35621        10.31756        -0.14742
C         12.04048         9.60542        -0.41729
C         13.33160        11.77727        -0.52699
C         12.08132        12.54060        -0.12435
C         13.29920        14.66009        -0.65011
C         12.07644        13.98204        -0.58489
C         13.36082        16.00610        -1.14164
C         12.11910        16.74493        -1.48776
C         13.34484        19.15638        -1.67851
C         12.11989        18.27988        -1.72053
C         13.28165        20.50718        -1.34920
C         12.06720        21.19496        -1.00146
C         13.32038        23.30558        -0.56794
C         12.09096        22.52574        -0.59927
C         13.31700        24.70972        -0.27134
C         12.07871        25.40228        -0.02181
C         13.30016        27.55553        -0.14129
C         12.09756        26.82633         0.05377
C         13.28573        29.04734        -0.14880
C         12.02476        29.79501         0.12924
C         13.36010        31.64373         1.18209
C         12.05872        31.10448         0.77966
C         13.39957        33.08144         1.65649
C         12.11922        33.82901         1.64363
C         13.34267        35.98230         1.64304
C         12.15232        35.25156         1.73742
C         13.33375        37.42517         1.66141
C         15.77595         6.05815         0.05544
C         14.49903         5.34679        -0.05647
C         15.73943         7.50974        -0.14133
C         14.55995         8.15495        -0.31419
C         15.81015        10.30669        -0.78505
C         14.49609         9.55779        -0.85338
C         15.75791        11.72270        -1.30714
C         14.48279        12.42610        -0.84260
C         15.71582        14.45116        -0.33979
C         14.51946        13.86547        -0.65273
C         15.78357        16.48345        -0.73308
C         14.60403        16.57221        -1.49968
C         15.86772        19.12434        -1.56250
C         14.65742        18.61337        -2.00774
C         15.80039        20.52254        -1.13292
C         14.55750        21.31002        -1.52434
C         15.75425        23.40591        -0.83218
C         14.53742        22.68552        -0.89840
C         15.76674        24.78307        -0.58673
C         14.53455        25.45591        -0.35627
C         15.72803        27.67214        -0.69707
C         14.52003        26.88582        -0.30263
C         15.74287        29.15710        -0.55020
C         14.56064        29.77644         0.08734
C         15.93302        31.69644         0.86045
C         14.60141        30.99133         0.68384
C         15.73657        33.22511         0.65269
C         14.73231        33.82561         1.66755
C         15.76936        36.05306         1.27241
C         14.60028        35.32142         1.46432
C         15.75645        37.49705         1.33430
C         14.48515        38.14708         1.52948
C         18.27498         6.04832        -0.20810
C         16.96193         5.38953         0.13334
C         18.27313         7.55155        -0.05033
C         16.98537         8.31213         0.12655
C         18.25355        10.46127        -0.43647
C         16.98772         9.71365        -0.45381
C         18.30424        11.80463        -0.71874
C         17.06701        12.52090        -1.07996
C         18.26152        14.78812        -0.35315
C         17.04558        14.00188        -0.75492
C         18.15323        16.34797        -0.09981
C         17.05624        17.04535        -0.91920
C         18.38165        19.10966        -1.37250
C         17.14251        18.40548        -1.36560
C         18.35617        20.54432        -1.47942
C         17.10221        21.25320        -1.11084
C         18.25648        23.48606        -1.42295
C         16.99507        22.72776        -1.29615
C         18.32256        24.86384        -0.89637
C         17.05440        25.54326        -0.52879
C         18.37113        27.82351        -0.53666
C         17.08013        27.01315        -0.91733
C         18.34275        29.25538        -1.11793
C         17.02234        29.90513        -0.59268
C         18.29007        31.92059        -0.15323
C         17.01965        31.14128        -0.04505
C         18.24577        33.29610         0.47949
C         17.05203        33.96843         0.72785
C         18.19414        36.13866         0.88650
C         17.02467        35.37999         1.00840
C         18.20698        37.56233         1.08348
C         16.94748        38.21542         1.26536
C         20.64551         6.06758         0.63317
C         19.50344         5.39147         0.38639
C         20.66187         7.54708         0.51352
C         19.44221         8.23165         0.02623
C         20.83797        10.39574        -0.33675
C         19.51296         9.68164        -0.29756
C         20.84120        11.91070        -0.32415
C         19.54171        12.63775        -0.57411
C         20.61469        14.76972         0.46348
C         19.42100        14.09545        -0.19778
C         20.72983        16.26113         0.07387
C         19.51466        17.06173        -0.29646
C         20.99758        19.01516        -1.01756
C         19.67625        18.25043        -1.30637
C         21.34139        20.20853        -1.58638
C         19.41755        21.35291        -1.91634
C         20.64394        23.54378        -1.95389
C         19.51321        22.76738        -1.71432
C         20.70144        24.95911        -1.62664
C         19.53982        25.64489        -1.18238
C         20.86307        27.63564        -0.75039
C         19.60172        27.01106        -0.88341
C         20.84748        29.03841        -0.38905
C         19.45760        29.61028        -0.09140
C         20.71037        31.86392         0.04733
C         19.46392        31.07534         0.43757
C         20.71925        33.29879         0.44159
C         19.48591        33.97917         0.57075
C         20.72668        36.21389         0.62906
C         19.44290        35.44813         0.56965
C         20.69506        37.64998         1.01058
C         19.42583        38.27451         1.13997
C         23.19267         6.10373         0.96221
C         21.87054         5.39310         1.23410
C         23.19028         7.51725         0.80844
C         21.94919         8.28690         0.61284
C         23.21550        10.46045         0.66986
C         22.14892         9.65073        -0.04278
C         23.19322        11.87584         0.65274
C         21.98637        12.63351         0.30067
C         23.14949        14.76203         0.78153
C         21.93536        14.00319         0.38051
C         23.30090        16.15793         0.27321
C         22.07796        16.85911        -0.20342
C         23.36173        19.05497         0.04687
C         22.05609        18.35987        -0.19685
C         23.54738        20.42629        -0.47826
C         22.52144        21.01811        -1.25747
C         23.82907        23.13407        -1.29150
C         22.69724        22.36137        -1.67598
C         23.90224        24.57780        -1.45885
C         21.92269        25.68113        -1.63548
C         23.39271        27.53916        -0.70284
C         22.08347        26.94234        -1.01798
C         23.39524        29.06987        -0.67070
C         22.03996        29.70852        -0.35766
C         23.25364        31.91122         0.09569
C         22.02218        31.18169        -0.23175
C         23.17599        33.29874         0.36845
C         21.94642        33.98666         0.51707
C         23.20528        36.19333         0.80502
C         21.94168        35.41643         1.02997
C         23.17669        37.66555         0.88075
C         21.91057        38.32624         1.09592
C         25.69195         6.15978         0.77265
C         24.39876         5.41847         1.02171
C         25.64033         7.52825         1.43541
C         24.36112         8.29218         1.23284
C         25.59002        10.47051         1.26577
C         24.37003         9.77018         1.10934
C         25.60619        11.85944         1.07306
C         24.39778        12.56144         0.94179
C         25.71762        14.75835         1.02902
C         24.42415        14.02892         1.04714
C         25.73065        16.17535         1.02452
C         24.52789        16.91568         0.64807
C         25.76552        19.03814         0.80900
C         24.56077        18.26946         0.44800
C         25.94612        20.37596         0.18022
C         24.74326        21.12519        -0.24466
C         26.12757        23.21941        -0.36071
C         24.88417        22.47184        -0.61972
C         26.05355        24.73406        -0.38334
C         24.77920        25.40587        -0.77013
C         25.90474        27.65787        -0.38876
C         24.60144        26.85312        -0.58337
C         25.75185        29.04437         0.29733
C         24.50571        29.75042         0.13615
C         25.61486        31.88446         0.85258
C         24.44643        31.14750         0.31810
C         25.71783        33.35064         0.59414
C         24.42600        34.08813         0.42380
C         25.61505        36.31317         1.12883
C         24.38326        35.52412         0.73904
C         25.60572        37.59083         0.27229
C         24.34032        38.35739         0.61843
C         28.17225         6.11009         1.21476
C         26.98597         5.43648         1.06681
C         28.20871         7.57261         1.36415
C         26.92395         8.28219         1.59491
C         28.14459        10.50208         1.31940
C         26.87308         9.77918         1.56249
C         28.13237        11.82272         1.05146
C         26.88121        12.57813         0.71420
C         28.14772        14.71144         1.30834
C         26.92206        14.03875         1.12680
C         28.17805        16.12267         1.34669
C         26.96641        16.84180         1.20922
C         28.31392        19.00560         1.22936
C         27.00858        18.30820         1.23993
C         28.36361        20.38423         1.04567
C         27.25015        21.08547         0.37947
C         28.30772        23.25416         0.87515
C         27.25221        22.55452         0.34410
C         28.16248        24.74390         1.16898
C         27.09313        25.49121         0.34889
C         28.15668        27.58473         0.97249
C         27.04067        26.84189         0.27754
C         28.23566        29.04705         0.46761
C         26.90744        29.72339         0.67498
C         28.16765        31.95988         0.97685
C         26.92444        31.14732         1.06180
C         28.16976        33.37815         0.95559
C         26.94501        34.08069         0.97257
C         28.23344        36.29036         0.85541
C         26.92994        35.53580         1.12412
C         28.13803        37.69524         0.35230
C         26.89449        38.35764         0.31887
C         30.64479         6.08156         1.28633
C         29.45340         5.41864         1.19091
C         30.69822         7.55194         1.61847
C         29.38058         8.26391         1.43149
C         30.63533        10.40333         1.01809
C         29.42752         9.76296         1.67124
C         30.63985        11.80926         0.91319
C         29.37749        12.61044         0.75329
C         30.68026        14.69259         1.30758
C         29.40836        13.91455         1.56586
C         30.67512        16.07959         1.42482
C         29.44975        16.83008         1.44964
C         30.76386        18.94467         1.52379
C         29.50635        18.23657         1.44164
C         30.72942        20.39735         1.78606
C         29.52341        21.15577         1.37990
C         30.67989        23.31140         1.88189
C         29.48786        22.54330         1.34240
C         30.66731        24.75847         1.42227
C         29.51777        25.42310         1.14759
C         30.65953        27.65868         1.51169
C         29.54333        26.88415         0.75230
C         30.71489        29.07790         1.01638
C         29.40695        29.75706         1.12266
C         30.71306        31.91528         0.87859
C         29.43126        31.24878         1.14859
C         30.69314        33.37952         0.85037
C         29.42658        34.11577         0.84067
C         30.61793        36.15549         0.07553
C         29.45506        35.49578         0.59607
C         30.64856        37.66261        -0.05956
C         29.29104        38.29809        -0.14135
C         33.09236         6.10836         1.06538
C         31.92903         5.41473         1.20221
C         33.11619         7.54913         0.83329
C         31.86212         8.26186         0.95459
C         32.97352        10.32967         0.12902
C         31.78748         9.63036         0.69622
C         33.01779        11.82513         0.28696
C         31.80531        12.55101         0.71531
C         33.04178        14.68237         0.54810
C         31.86443        13.98789         0.88034
C         33.21848        16.05094         1.00023
C         31.95593        16.80036         1.47941
C         33.24238        18.97331         1.37063
C         31.97644        18.27134         1.46317
C         33.27355        20.35171         1.53711
C         32.06445        21.13628         1.87870
C         33.19496        23.28231         1.38607
C         32.02794        22.60636         1.64501
C         33.21149        24.71254         1.09113
C         31.98093        25.46427         1.44841
C         33.16784        27.65807         0.84753
C         32.00369        26.95252         1.42675
C         33.11457        28.99978         0.52997
C         31.87056        29.74754         0.73009
C         33.00565        31.83517        -0.06254
C         31.85648        31.19818         0.56041
C         32.97179        33.21070        -0.36919
C         31.93069        34.07009         0.19395
C         32.75318        35.97581        -1.18517
C         31.74223        35.42896        -0.30718
C         32.56628        37.34550        -1.64650
C         31.56499        38.11575        -1.17477
C         34.29012         8.19447         0.50215
C         35.45695        10.47106         0.19538
C         34.29728         9.56126        -0.13743
C         35.67336        11.68733        -0.53325
C         34.25708        12.66178         0.44060
C         35.41359        14.82439        -0.64599
C         34.08914        13.97419        -0.32703
C         35.51260        16.17244         0.09203
C         34.39395        16.84935         0.59427
C         35.62347        18.95768         0.64235
C         34.44772        18.24655         0.91816
C         35.84814        20.32923         1.22694
C         34.55807        21.08891         1.55287
C         35.78836        23.34017         1.22854
C         34.51365        22.59897         1.56061
C         35.68632        24.74420         0.64682
C         34.34457        25.39443         0.73936
C         35.52585        27.51525        -0.17268
C         34.39289        26.87206         0.64930
C         35.29170        28.89135        -0.64123
C         34.19966        29.64608        -0.18547
C         35.08772        31.63234        -1.37489
C         34.08878        31.03399        -0.53893
C         34.98103        33.00476        -1.73081
C         33.94065        33.80087        -1.24112
C         33.80580        35.19126        -1.61208
C         36.74543        12.62371        -0.14987
C         37.91895        14.74322        -0.39202
C         36.72892        13.99806        -0.37035
C         37.92556        16.16880        -0.42422
C         36.72666        16.88602        -0.08024
C         37.91713        19.02593        -0.34324
C         36.77069        18.29638         0.10821
C         37.76467        20.51739        -0.58252
C         36.88724        21.17526         0.49482
C         38.25930        23.43818        -0.58421
C         36.94788        22.47710         0.88081
C         37.44760        24.37422        -1.13206
C         36.57992        25.30599        -0.43425
C         37.41450        27.26297        -1.84305
C         36.49071        26.61748        -0.87808
C         37.29422        28.65657        -2.04972
C         36.24958        29.47135        -1.53409
C         36.14195        30.83074        -1.87770
C         39.06549        16.90007        -0.77756
C         40.03082        18.99773        -1.63266
C         39.01640        18.31391        -0.86621
C         39.98851        20.35006        -1.85521
C         39.02966        21.20331        -1.15446
C         40.28851        23.23198        -2.09147
C         39.14306        22.55915        -1.33499
C         40.00107        24.63134        -2.64251
C         38.78434        25.27751        -2.61363
C         38.53971        26.67879        -2.49130
C         40.86761        20.94976        -2.85244
C         40.93121        22.27963        -3.06345
O         15.39337        28.54288        -1.84782
O         20.28311         9.86025        -1.57539
O         26.93243        20.40006        -0.91074
O         36.16827        24.50496         2.01800
O         34.64806        21.85709         2.81690
O         17.92980        25.06002         0.52849
O          7.45518        23.01154        -1.61775
O          9.87645        29.51736        -0.88346
O         20.15463        35.95844        -0.66570
O         16.44776        20.82926         0.13290
O         20.49383        20.74731        -2.56530
O         35.58721        27.42693         1.28715
O         32.27086        26.23222         2.69285
O         31.33227        20.72889         3.07836
O         17.16614        13.52768        -2.14632
O         29.25881        30.40716         2.40543
O         25.28490        33.76590        -0.74850
O         26.03528        31.51015         2.18941
O         26.09594        18.94528         2.22940
O         29.40583        12.90234        -0.62993
O         21.76606        22.95405        -2.53517
O         20.52759        12.45907        -1.65007
O         20.11839        17.21573         1.01417
O         32.73714        11.19990        -1.01634
O         14.65707        17.36698        -2.65391
O         22.30901        18.97416         1.10219
O         35.35203        15.19353        -1.96182
O         18.75897        28.53240         0.77816
O         31.75801        33.97323         1.63928
O         27.77608        36.04823         2.22104
O         32.90134        16.22176         2.43148
O         12.55507        29.68435        -1.26289
O         12.09352        17.33589        -2.84021
O         26.61100        23.98152        -1.52359
O         26.25409        28.04761        -1.71926
O         22.95117        16.23394        -1.17319
O         26.92588         9.05831         2.85181
O         24.77788         7.71081         2.56652
O         15.65026        15.63832         0.38639
O         37.59236        24.52263        -2.53266
O         38.16256        23.17725         0.78244
O         23.56195        14.54865         2.16332
O         21.08018         8.22418         1.79878
O         21.17800        31.73732        -1.32039
O         10.25233        27.17201         1.66554
O         22.97847        25.13312        -2.35355
O         13.40762        31.99478         2.64118
O         17.36664        23.28212        -2.60474
O         15.15761        33.42082        -0.65428
H         15.83877        33.21781        -1.33086
O         19.37028        31.09984         1.86280
H         18.44662        30.86482         2.12027
O         23.77884        29.43783        -2.03295
H         24.66584        28.99596        -2.18506
O         15.31084        33.67255         2.99979
H         14.58013        33.46544         3.62265
O         21.82230        35.31096         2.49146
H         22.71898        35.18917         2.87112
O         18.53154        32.20217        -1.54981
H         18.76042        31.37507        -2.03382
O         41.30063        23.47739        -1.05588
H         42.17149        23.57137        -1.49549
O         26.83967        12.62868        -0.74561
H         27.79252        12.79219        -1.03679
O         13.64579        10.29561         1.27206
H         12.96603        10.86480         1.70702
O          8.11148        27.63660        -1.28917
H          8.65677        28.40641        -1.57995
O         31.25735        38.15043         1.19328
H         31.24604        39.13024         1.16614
O         27.70007        24.77533         2.55164
H         28.40881        24.38624         3.11201
O         29.40858        13.53235         2.97144
H         29.43906        14.34940         3.51243
O         25.47913        37.14471        -1.11987
H         25.38233        37.93810        -1.68698
O         16.94321         8.52457         1.58819
H         16.01121         8.71799         1.83437
O         21.69615         5.38074         2.66115
H         21.57479         6.31400         2.94589
O         34.33171         9.30378        -1.57500
H         33.47259         8.90886        -1.83381
O         18.39999         5.83418        -1.66646
H         19.18502         6.33330        -1.97762
O         16.45921        31.43354         2.18620
H         16.08113        32.11797         2.80067
O          9.46816        21.43594        -2.68884
H          8.65484        21.96070        -2.86346
O         13.19214         7.59430         1.53161
H         12.36204         7.15879         1.81918
O         30.98639         7.61312         3.05679
H         30.66114         8.49686         3.37373
O         25.73801         6.47001        -0.66851
H         25.81429         5.62361        -1.15730
O         22.76409         9.35421        -1.32813
H         22.07921         9.48414        -2.02482
O         10.67875        20.01492         0.50247
H         10.70645        20.85064         1.03590
O         10.83468        22.68243         1.42110
H         11.59806        23.10201         1.87343
O         30.49495        23.35426         3.33087
H         31.35909        23.56301         3.74603
O         36.48836        20.03256         2.50673
H         36.20947        20.73672         3.13874
O         19.81038        17.60183        -2.59102
H         19.93277        18.29463        -3.27450
O         18.60808        29.46572        -2.48824
H         18.25363        28.69899        -2.99244
O         12.07187        12.57548         1.35357
H         12.74194        13.23571         1.63378
O         28.52671        29.09768        -0.95697
H         27.69929        28.74247        -1.44473
O         10.46415        19.29128        -3.05873
H         10.74228        18.49400        -3.56509
O         15.62438        11.60314        -2.75743
H         15.99070        12.43275        -3.14748
O         34.65465        12.82983         1.73208
H         34.34720        12.10316         2.31099
O         20.29541        14.72877         1.88517
H         21.07762        15.04505         2.38816
O         27.78884        27.61672         2.35454
H         28.56946        27.89954         2.89225
O         17.77709        16.49824         1.27499
H         18.61289        16.53139         1.80149
O         36.84016        20.57800        -1.74305
H         37.21928        20.01982        -2.45625
O         25.36212        36.69762         2.50326
H         26.24292        36.80760         2.93581
O         35.27897        11.79629        -1.82238
H         34.63466        11.07416        -2.03299
O         29.90201        26.88074        -0.64321
H         29.49819        27.68255        -1.07343
O         14.12234         9.41297        -2.25080
H         14.55645        10.13706        -2.76381
O         29.58429         9.92801         3.12693
H         28.70487         9.68814         3.51314
O         17.27163        26.95959        -2.37183
H         16.51770        27.44951        -2.78385
O         33.48203        13.68546        -1.56486
H         34.00698        14.22398        -2.23335
O         30.31741        27.77262         2.91288
H         30.93857        27.18113         3.40754
O         14.71633        21.51839        -2.96345
H         13.92151        21.98577        -3.29665
H          5.26999        18.21611         0.61308
H          4.09175        20.31253         1.27325
H          3.98635        22.78423         1.34217
H          5.11944        24.93256         0.94026
H          7.46083        14.14160        -0.50985
H          6.34371        16.22682        -0.08260
H          6.12742        27.07664         0.88767
H          7.75164        29.01400         1.78131
H          9.91656         9.86664        -0.85065
H          8.68336        11.99126        -0.77025
H          8.73513        31.56537         1.55194
H          9.97741        33.69012         1.63540
H         12.38753         5.43390        -0.33614
H         11.10476         7.68059        -0.61090
H         11.19719        35.79311         1.81138
H         12.37068        37.93840         1.79816
H         14.53617         4.24843        -0.12818
H         14.45705        39.24590         1.56707
H         16.96004         4.29019         0.20283
H         16.92642        39.31036         1.37218
H         19.48343         4.29579         0.50145
H         19.39091        39.35632         1.34066
H         21.92516         4.32711         0.89752
H         21.91069        39.41510         1.25916
H         24.40904         4.32740         1.16672
H         24.33235        39.45731         0.56310
H         27.00325         4.33985         0.95936
H         26.88171        39.39919        -0.04391
H         29.44659         4.33044         1.01934
H         29.22219        39.32100        -0.54468
H         34.04971         5.56871         1.01473
H         31.95001         4.31483         1.24466
H         33.25862        37.73392        -2.40915
H         31.45162        39.15000        -1.53704
H         35.21778         7.60685         0.42663
H         35.82648        10.44397         1.23321
H         35.73426        33.44330        -2.40186
H         34.55682        35.61927        -2.29303
H         37.56685        12.20910         0.45874
H         38.87323        14.21498        -0.54552
H         38.02783        29.13912        -2.71377
H         36.89148        31.28136        -2.54483
H         39.97617        16.37390        -1.10030
H         40.79050        18.38668        -2.14281
H         40.89296        25.27892        -2.68580
H         39.28629        27.37705        -2.90234
H         41.43627        20.25977        -3.49534
H         41.57131        22.68949        -3.85941
