         300
 CSIRO Nanostructure Databank - Neutral Graphene Oxide Data Set
C         30.20254        31.64625         0.90257
C         30.26952        32.87566         0.79893
C         30.38501        36.10891         0.61683
C         30.49661        37.29093         0.94515
C         30.57059        40.38244         1.41934
C         30.52308        41.51175         0.87044
C         32.59819        28.82596         1.45895
C         31.51600        29.40197         1.27178
C         32.66348        31.61857         0.95764
C         31.13432        30.58194         0.51254
C         32.66157        32.85324         0.02716
C         31.33295        33.68764         0.18032
C         32.57796        35.93585        -0.50096
C         31.29980        35.15998        -0.02717
C         32.75065        37.36238         0.12505
C         31.72293        38.11104         0.96237
C         32.79080        40.34630         0.20673
C         31.87455        39.60931         1.29326
C         33.03233        41.87963         0.47219
C         31.24805        42.51135         0.24876
C         32.20081        43.69572        -1.75419
C         31.37290        43.13638        -0.91784
C         35.17718        27.33155         0.60471
C         35.15312        28.62934         1.31194
C         33.93675        29.44240         1.73533
C         35.14359        31.69897         1.30838
C         33.94843        30.79327         0.85770
C         35.13775        33.04850         0.53604
C         33.95836        33.66850         0.19656
C         35.16773        35.89840        -0.13625
C         33.90854        35.10570        -0.29528
C         35.18330        37.41238        -0.01585
C         33.91746        38.15526        -0.45244
C         35.34194        40.07055         0.18522
C         34.07342        39.57174         0.09636
C         35.34312        42.21346        -0.34488
C         34.01718        42.55323        -0.52150
C         35.65934        44.56081        -2.12255
C         33.56274        43.44846        -1.58854
C         36.01305        45.88593        -2.58581
C         37.50588        27.25850        -0.16442
C         36.19395        26.72645         0.23829
C         37.58642        28.72493         0.22462
C         36.41745        29.38143         0.95738
C         37.75502        31.61111         0.98309
C         36.46243        30.88569         1.18695
C         37.69385        33.15138         1.17460
C         36.50233        33.77111         0.34189
C         37.48864        36.12105         0.83735
C         36.24260        35.26802         0.73687
C         38.02632        37.01145        -0.03649
C         36.32780        38.09452        -0.71586
C         37.80810        40.12467        -0.55728
C         36.49547        39.41156        -0.42438
C         37.85644        41.59908        -0.89173
C         36.52391        42.35076        -1.32938
C         38.07861        44.49459        -1.54842
C         36.73057        43.83081        -1.64568
C         38.40314        45.62761        -2.57910
C         37.12482        46.43613        -2.55704
C         40.03010        24.43750        -0.68862
C         38.99145        25.09261        -0.52810
C         40.15478        27.22795        -0.09969
C         38.76668        26.45926        -0.08562
C         40.09163        28.67984        -0.23275
C         38.95106        29.41472         0.46249
C         40.05639        31.68704        -0.20916
C         38.75541        30.90153         0.02096
C         40.16202        33.12658         0.20452
C         39.06094        33.78854         0.94024
C         40.38535        35.90292         1.03732
C         39.31024        35.08634         1.41179
C         40.21521        37.39206         1.20624
C         39.23255        37.91721         0.07408
C         40.15529        40.30799         0.50572
C         38.94439        39.46411         0.23018
C         40.18878        41.73608         0.05083
C         39.10837        42.35947        -0.51100
C         40.72152        44.21376        -1.21073
C         39.25273        43.79049        -0.94488
C         40.92336        45.67254        -1.69971
C         39.67475        46.39952        -2.26093
C         40.46003        48.61288        -1.38199
C         39.70075        47.82587        -1.97242
C         42.61852        24.48927        -1.35018
C         41.41291        24.90780        -0.62543
C         42.60607        27.25918        -0.99219
C         41.42089        26.46046        -0.44485
C         42.62917        28.69461        -0.53433
C         41.30608        29.42397        -0.61023
C         42.61432        31.70535        -0.62344
C         41.30904        30.92721        -0.57742
C         42.65186        33.19215        -0.44438
C         41.51670        33.83292         0.34739
C         42.63266        36.10440        -0.13539
C         41.31366        35.32372         0.00028
C         42.78386        37.31269         0.79175
C         41.53397        38.14932         1.03189
C         42.74702        40.30662         0.27561
C         41.48589        39.61500         0.76323
C         42.70159        41.75311         0.75832
C         41.41777        42.49637         0.47383
C         43.01683        44.48639        -0.03491
C         41.46603        43.99360         0.14764
C         42.99517        45.99230        -0.24467
C         42.09501        46.43979        -1.21487
C         42.62737        48.98534         0.01303
C         41.85155        48.64215        -1.10551
C         43.68359        25.12525        -1.38651
C         45.20634        27.27825        -1.26788
C         43.88897        26.58214        -1.44853
C         45.22007        28.76796        -0.94657
C         43.91770        29.45604        -0.55482
C         45.17075        31.72686        -0.29989
C         43.89523        30.95885        -0.40103
C         45.13848        33.22215        -0.39432
C         43.97015        33.91849        -0.40383
C         45.24119        36.24577        -0.50241
C         43.92787        35.41216        -0.48016
C         45.27574        37.45888         0.41589
C         44.02425        38.15579         0.60157
C         45.20677        40.22251         1.14664
C         43.98894        39.53253         0.70104
C         45.27689        41.71695         1.10642
C         44.01321        42.48957         0.88870
C         45.16103        44.73350         1.41957
C         43.84117        43.98068         1.22507
C         45.07109        46.33496         1.26264
C         43.95259        46.83896         0.39423
C         43.60359        48.16911         0.24737
C         47.55154        27.55637        -1.80700
C         46.48291        26.93185        -1.91409
C         47.79275        29.01153        -2.00887
C         46.39236        29.65536        -1.38155
C         47.70237        31.70093        -0.44516
C         46.40795        31.06649        -0.87484
C         47.67948        33.14505        -0.04195
C         46.45303        33.91476        -0.43169
C         47.75989        36.11637        -0.08285
C         46.50147        35.40411        -0.40442
C         47.74108        37.46049         0.16887
C         46.49239        38.11024         0.53929
C         47.88621        40.11720         1.34513
C         46.52559        39.45152         1.13806
C         47.80220        41.65568         1.64385
C         46.43483        42.37905         1.84160
C         47.77014        44.54460         0.92835
C         46.45571        43.94656         1.54750
C         47.53713        46.01920         0.91917
C         46.47141        46.62294         0.79305
C         50.30104        29.06885        -1.03355
C         49.04669        29.70468        -1.45217
C         50.17762        31.59870         0.02926
C         49.02500        31.06044        -0.74085
C         50.25592        33.08533         0.15336
C         48.98786        33.88708         0.10712
C         50.33333        36.09432         0.02803
C         49.03447        35.36143        -0.22788
C         50.27029        37.54527         0.28801
C         48.99950        38.25339        -0.13986
C         50.19535        40.53270         0.19494
C         48.93158        39.73603         0.29354
C         50.27696        41.92668         0.80102
C         49.05222        42.46975         1.51187
C         50.28367        44.43147         1.74221
C         48.99700        43.97442         1.56906
C         51.29575        29.53943        -0.46846
C         52.53675        31.64646         0.37705
C         51.37430        30.70356         0.49077
C         52.60352        32.88147         0.40055
C         51.58774        33.85204        -0.17295
C         52.70316        36.20544         0.03402
C         51.57758        35.26159         0.46162
C         52.62795        37.43002         0.15509
C         51.54205        38.38866         0.53260
C         52.61076        40.66123         0.13767
C         51.50161        39.73038        -0.23625
C         52.66921        41.75603         0.69844
C         51.58601        42.72155         0.93478
C         51.45746        43.88602         1.85115
O         37.32098        37.27558        -1.26055
O         35.60975        41.34189         0.73009
O         45.73854        39.60108         2.36203
O         41.70645        39.11512         2.11803
O         34.85019        35.33146        -1.42486
O         39.81738        32.76530        -1.17127
O         45.84941        44.56465         2.70738
O         50.75403        42.84926        -0.24500
O         37.44485        31.03369         2.27416
O         38.19352        40.55434        -1.89051
O         47.52431        32.10970         0.95222
O         41.78219        42.07555         1.83159
O         49.62769        33.59550         1.38873
O         42.49915        32.61960        -1.77182
O         38.49960        44.78173        -0.17956
O         34.40025        44.13185        -2.41039
O         41.75658        25.51243         0.62245
O         39.13950        40.04022         1.54083
O         45.51921        27.76008         0.06484
O         43.48294        43.89230        -1.17416
O         42.94789        27.15302        -2.40776
O         43.35938        28.88622         0.69212
O         49.15746        40.60521        -0.84079
O         42.43507        47.60738        -1.94662
O         43.05870        36.04686        -1.50177
O         49.87962        35.72472        -1.34418
O         40.73260        45.93970        -3.13583
O         41.14925        30.21268        -1.85038
O         38.21353        35.76404         1.99902
O         46.68435        34.64972        -1.67883
O         36.22438        28.71274         2.27315
O         37.40362        28.30170        -1.15701
O         46.09196        30.76972        -2.26871
O         44.53596        31.25146         0.90679
O         39.49099        26.72347         1.13275
O         30.87252        34.27333        -1.07904
O         48.68481        41.88812         2.79723
O         32.78657        37.32304         1.58594
O         44.95289        42.23425        -0.20437
O         49.29838        30.92314        -2.20593
O         43.00382        36.61343         2.06777
H         42.91806        37.28266         2.78520
O         43.08187        44.16710         2.42061
H         43.70486        44.15170         3.18071
O         36.03906        41.70572        -2.52010
H         36.76280        41.13024        -2.87054
O         35.41534        37.70998         1.38319
H         34.61911        37.44247         1.90202
O         33.84640        38.27462        -1.88219
H         33.51357        37.42271        -2.26492
O         36.89456        33.64766        -1.02122
H         36.20805        34.08404        -1.58436
O         51.60297        35.17742         1.86610
H         52.14704        34.40322         2.12901
O         51.46819        39.46953        -1.62391
H         51.48220        40.32266        -2.10689
O         34.97667        32.07019         2.67706
H         35.76232        32.62227         2.92400
O         34.18703        30.37193        -0.48497
H         33.87290        31.08380        -1.10283
O         51.73450        33.92804        -1.56550
H         52.39910        34.61588        -1.78311
O         38.52040        45.00880        -3.83660
H         39.37997        45.26992        -4.24241
O         32.11228        40.23350        -1.05217
H         32.65099        39.69171        -1.67971
O         41.23365        43.31580        -2.18087
H         42.22858        43.44927        -2.19521
O         39.31083        29.40756         1.85203
H         39.36880        28.46946         2.15002
O         39.67989        37.64850         2.49142
H         39.81669        38.60538         2.69341
O         51.18497        30.28270         1.81519
H         51.97588        29.79346         2.11986
O         33.36698        42.17703         1.75207
H         33.03072        41.48030         2.36912
O         37.37744        33.40025         2.56151
H         37.99477        32.87261         3.11459
O         40.62549        35.38610        -1.25941
H         41.30930        35.48164        -1.96457
O         34.01205        29.75411         3.10778
H         34.91890        29.52835         3.42585
O         48.40602        39.47180         2.52675
H         47.75259        39.60534         3.24855
O         39.95471        37.85349        -1.16152
H         39.33448        37.58085        -1.87348
O         44.87012        46.87558         2.54806
H         45.54860        46.49447         3.14861
O         51.63106        38.72377         1.91162
H         51.73551        37.89954         2.43262
O         45.31616        36.87488        -1.80194
H         45.60232        36.19121        -2.44870
O         38.08141        30.85298        -1.24139
H         38.27748        31.69222        -1.72102
O         32.45417        32.04645         2.26064
H         32.81837        31.38206         2.89188
O         49.03476        38.22319        -1.58923
H         49.85988        38.68534        -1.88794
O         47.75593        29.24643        -3.39173
H         48.18008        30.11408        -3.57794
O         47.77794        44.04167        -0.41299
H         48.62270        44.29000        -0.84621
O         32.56717        39.71989         2.53774
H         32.06617        39.23208         3.22528
O         41.91035        33.74018         1.73326
H         42.33309        34.58515         2.01705
O         46.11167        42.21464         3.22481
H         46.92092        42.41504         3.74666
O         35.64369        35.24556         2.04999
H         36.38095        35.23706         2.70427
O         32.40121        36.12042        -1.90829
H         31.97446        35.30361        -2.26345
O         32.71229        32.42086        -1.35096
H         31.87242        31.93672        -1.54856
O         42.72955        40.34194        -1.16456
H         43.45812        40.92739        -1.47156
O         40.84057        44.76425         1.13798
H         41.19411        44.48667         2.01574
O         31.05422        30.33513        -0.85378
H         31.43817        29.45656        -1.05390
