         276
 CSIRO Nanostructure Databank - Neutral Graphene Oxide Data Set
C        -11.07670         0.59771        -0.70485
C         -9.98860         1.30034        -0.13495
C         -8.75440         0.62410         0.10021
C         -7.49102         1.34833        -0.15526
C         -6.22447         0.56241         0.01004
C         -4.97725         1.31811         0.42965
C         -3.75562         0.51423        -0.09820
C         -2.44039         1.29763        -0.00366
C         -1.16333         0.68250         0.44588
C          0.08472         1.38296        -0.06853
C          1.36932         0.66747         0.28334
C          2.52819         1.34971         0.10122
C          3.78341         0.65018        -0.40424
C          5.07531         1.37317        -0.08294
C          6.35302         0.64748        -0.32982
C          7.60251         1.45106        -0.52132
C          8.87833         0.65807        -0.50955
C         10.20105         1.38712        -0.30152
C         11.13762         0.57601         0.56829
C        -10.02093         2.80130         0.14181
C         -8.75946         3.61546        -0.31628
C         -7.45714         2.83989         0.14139
C         -6.13610         3.43764        -0.33167
C         -4.99398         2.74378        -0.07985
C         -3.73977         3.48937         0.19514
C         -2.42645         2.81014         0.09007
C         -1.21266         3.54674         0.45656
C          0.09269         2.80334         0.56846
C          1.30038         3.61483         0.08933
C          2.49770         2.79825        -0.29472
C          3.77611         3.53325        -0.58926
C          5.04317         2.87234        -0.12594
C          6.32945         3.63317        -0.13079
C          7.60760         2.89584        -0.22343
C          8.83651         3.57687        -0.05957
C         10.02667         2.85843         0.04803
C         -8.65939         4.99871         0.34954
C         -8.34030         6.19728        -0.23675
C         -5.98013         4.80702        -0.93883
C         -4.92330         5.65981        -0.38635
C         -3.77947         4.97688         0.21759
C         -2.49383         5.72961         0.36366
C         -1.24563         4.97149         0.06022
C         -0.07090         5.72553        -0.48354
C          1.26152         5.06077        -0.29550
C          2.48660         5.78080        -0.78695
C          3.79518         5.04097        -0.75493
C          5.02042         5.80008        -0.43638
C          6.36935         5.09782        -0.54425
C          7.46492         5.76097         0.30588
C          8.85770         5.11729         0.01648
C         -7.80611         7.34761         0.54156
C         -6.69982         8.06802         0.18373
C         -4.81661         7.05735        -0.57706
C         -3.71998         7.84311        -0.22706
C         -2.48782         7.21479         0.29991
C         -1.12671         7.92801         0.26019
C         -0.17900         7.26072        -0.76989
C          1.21305         8.00683        -0.85521
C          2.47192         7.23395        -0.51802
C          3.67108         7.88656        -0.30098
C          4.94889         7.16050        -0.23806
C          6.19904         7.90759        -0.00639
C          7.39960         7.26293         0.14887
C         -6.09593         9.14918         0.96875
C         -4.87919         9.72802         0.79570
C         -3.83657         9.35195        -0.27109
C         -2.48608        10.03432        -0.11648
C         -1.27977         9.40663        -0.03230
C          0.00781        10.08312        -0.05238
C          1.18828         9.39937        -0.26342
C          2.46574        10.03243        -0.07369
C          3.66194         9.33701        -0.11165
C          4.92594        10.01625         0.05553
C          6.11549         9.35417         0.07467
C        -11.10344        -0.76664        -1.05711
C        -10.27733        -1.75791        -0.44465
C         -8.66865        -0.72223         0.43309
C         -7.47766        -1.52052         0.39686
C         -6.26538        -0.89258         0.28111
C         -4.99186        -1.71334         0.22650
C         -3.75494        -0.86044         0.56743
C         -2.47727        -1.55111         0.95720
C         -1.15490        -0.83635         0.83440
C          0.04689        -1.51109         0.44818
C          1.33834        -0.79566         0.74799
C          2.61370        -1.54135         0.30750
C          3.88023        -0.79960         0.02995
C          5.07067        -1.53994        -0.53187
C          6.33201        -0.79163        -0.81226
C          7.68582        -1.51555        -1.00052
C          8.69850        -0.82303        -0.08179
C          9.99523        -1.57755         0.07029
C         11.09627        -0.77468         0.61511
C         -9.78943        -2.98293        -0.90572
C         -8.71054        -3.71626        -0.25141
C         -7.61760        -3.01013         0.52076
C         -6.36402        -3.77983         0.87175
C         -5.07200        -2.97221         1.14019
C         -3.77765        -3.79050         0.90973
C         -2.45578        -3.06630         0.95300
C         -1.10801        -3.73046         0.59221
C         -0.14235        -2.84692        -0.22928
C          1.19169        -3.56244        -0.54818
C          2.51984        -2.88262        -0.37147
C          3.82054        -3.69288        -0.65218
C          5.10722        -3.00545        -0.14524
C          6.32042        -3.77614        -0.61695
C          7.61536        -3.05491        -0.81918
C          8.92008        -3.82645        -0.55462
C         10.04863        -2.92541        -0.07392
C         -8.62609        -5.08170        -0.38603
C         -7.65069        -5.91835         0.43166
C         -6.29598        -5.21876         0.48894
C         -5.13272        -5.84901         0.17936
C         -3.84362        -5.04357         0.01565
C         -2.56120        -5.86387         0.19871
C         -1.30217        -5.08308        -0.08564
C         -0.07311        -5.79834        -0.53898
C          1.27033        -5.10172        -0.74746
C          2.41398        -5.73618         0.05221
C          3.74608        -5.05992        -0.00326
C          5.02429        -5.82322         0.00168
C          6.25136        -5.20822        -0.18175
C          7.48430        -5.88833         0.15723
C          8.65954        -4.97176         0.49434
C         -7.54453        -7.37209         0.04259
C         -6.37986        -7.98916        -0.26999
C         -5.16749        -7.15270        -0.62348
C         -3.85203        -7.96705        -0.59153
C         -2.57947        -7.30037        -0.18519
C         -1.32230        -8.05536        -0.51102
C         -0.03720        -7.30562        -0.52832
C          1.08302        -8.00883         0.23703
C          2.39197        -7.22402         0.33858
C          3.68219        -7.97845         0.39542
C          4.96228        -7.28726         0.04028
C          6.27312        -8.05035         0.26195
C          7.47008        -7.22316         0.48437
C         -6.29111        -9.44704        -0.25552
C         -5.13186       -10.14472        -0.25348
C         -3.81736        -9.48453        -0.41051
C         -2.57290       -10.12706         0.02508
C         -1.31063        -9.50636        -0.12459
C         -0.08769       -10.17045         0.00773
C          1.23680        -9.47371        -0.27797
C          2.48864       -10.14695         0.27038
C          3.66184        -9.47209         0.41102
C          4.93423       -10.09105         0.79065
C          6.11995        -9.43117         0.79011
O          3.13924         5.41461        -2.03959
O         -2.59001         6.51064         1.60774
O         -0.59251        -7.83876        -1.77079
O         -2.28835         2.08158        -1.21531
O          5.81593         0.80863         1.03033
O         -3.88661        -4.63015        -1.32810
O          8.28981         1.06375        -1.77316
O          3.59764        -1.26684         1.37529
O         -0.99857        -5.20323        -1.50387
O         -7.39830        -3.49354         1.88208
O         -9.82727        -1.38142         0.85195
O          1.32798         8.21369        -2.37186
O          6.85639        -3.60819        -1.95623
O         -3.65634        -8.80595        -1.73640
O          3.58453         0.62329        -1.78894
O         -1.05061         0.26590         1.79310
O         -6.01076         7.71586        -1.01030
O          1.78125        -2.79063        -1.63735
O          1.56334         4.65922         1.09392
O          2.90873        -4.99589         1.20390
O          5.54733         3.45179         1.11034
O         -3.97431         4.19443         1.47251
O          3.05563        -7.47280         1.62562
O         -3.33106        -0.91219         1.94531
O         -6.74767         0.91105        -1.32772
O         -2.55750        -6.86710         1.23996
O         -0.92266         5.01563        -1.42906
O          3.00550         2.93336        -1.66116
O          5.66892        -7.90999        -1.06999
O         -6.56594         5.10080        -1.99464
O         -2.97424        -3.79250         2.12559
O          5.40406        -1.14047        -1.87987
O          0.55975        -8.09269         1.58450
H          1.33132        -8.04766         2.19848
O        -10.11619         2.93411         1.57653
H        -10.87147         2.39554         1.89183
O          8.37801        -4.37361         1.76908
H          7.46398        -4.01183         1.75897
O         -8.82931         3.65274        -1.72674
H         -8.12313         4.26554        -2.06488
O          5.27391        -3.16389         1.28007
H          4.60171        -2.62025         1.76042
O         -4.89222        -2.20583        -1.11514
H         -4.69953        -1.44731        -1.71579
O         -0.87427         7.41401        -2.00643
H         -0.40211         6.92350        -2.71122
O          8.08852        -0.81724         1.23371
H          8.77916        -0.64292         1.90684
O          1.61209        -5.35797        -2.12805
H          0.80211        -5.19638        -2.66371
O          7.14426         5.48124         1.68969
H          7.58515         6.14756         2.25551
O          1.34088        -0.72854         2.19615
H          2.22544        -0.40452         2.47911
O          9.35439        -4.44906        -1.77510
H          8.56860        -4.50053        -2.36730
O         -8.22064        -5.98284         1.76970
H         -8.12390        -5.07954         2.16882
O         -5.16665        -2.57571         2.50119
H         -4.26791        -2.61295         2.90346
O         -3.97516         0.25905        -1.49928
H         -3.60342         1.02174        -2.00547
O          2.60060         8.80407        -2.68703
H          3.12152         8.03775        -3.03273
O         -7.37161         2.91394         1.59698
H         -8.29430         2.85809         1.95236
O         -4.90660         1.35553         1.86059
H         -5.56568         2.01844         2.17461
O          1.44135        -9.49510        -1.71012
H          0.64557        -9.09024        -2.13885
O         -5.32969        -6.71069        -1.98519
H         -4.75465        -5.88966        -2.08401
O          8.11623        -1.33294        -2.35175
H          7.41760        -1.72193        -2.92408
O         -0.47329         7.81507         1.53800
H         -1.09672         7.34644         2.14657
O         -4.33751         9.79505        -1.55223
H         -5.12766         9.24430        -1.76054
O          3.99976        -3.84665        -2.05598
H          3.14010        -4.13067        -2.45022
O         -0.80311        -2.54970        -1.47557
H         -0.11026        -2.29691        -2.12784
O          6.76864         5.17171        -1.93728
H          5.98644         4.99491        -2.50286
O         -8.50445         6.40207        -1.56774
H         -7.96162         7.16434        -1.85516
O          0.05488         1.42982        -1.49952
H          0.96534         1.55373        -1.84825
O          0.32883         2.55864         1.97844
H          0.55683         3.41961         2.39487
O          9.39387         5.62614        -1.20359
H          8.71715         5.49023        -1.90507
O         10.86275         1.47191        -1.60126
H         10.14453         1.52489        -2.27501
O         -0.41237        -3.98266         1.82600
H         -1.07671        -4.26782         2.49514
H         11.90638        -1.31713         1.12860
H         11.99109         1.10396         1.02033
H         10.96271         3.42608         0.17355
H          9.56099         5.42230         0.83595
H          8.31023         7.85423         0.33483
H          7.05363         9.91474         0.19986
H          4.90974        11.11146         0.15892
H          2.48249        11.10858         0.16089
H          0.04736        11.16017         0.17858
H         -2.49413        11.12361        -0.28620
H         -4.60314        10.53100         1.49918
H         -6.71587         9.51400         1.80485
H         -8.27211         7.57220         1.51372
H         -8.51910         4.95633         1.43968
H        -10.93429         3.25329        -0.33189
H        -11.89740         1.21974        -1.10073
H        -11.80066        -1.07674        -1.85087
H        -10.25158        -3.44352        -1.79314
H         -9.41149        -5.60785        -0.95242
H         -8.43148        -7.98623         0.26828
H         -7.23968        -9.99355        -0.13565
H         -5.14968       -11.23944        -0.14405
H         -2.62603       -11.15335         0.42117
H         -0.08944       -11.25734         0.19071
H          2.48411       -11.24605         0.34732
H          4.90577       -11.14323         1.11322
H          7.02702        -9.95056         1.13539
H          8.35321        -7.68884         0.94800
H          9.59499        -5.57200         0.60554
H         11.00531        -3.43710         0.12108
