         204
 CSIRO Nanostructure Databank - Neutral Graphene Oxide Data Set
C        -11.15576         0.62396         0.36114
C         -9.84063         1.32622         0.59794
C         -8.73345         0.71838        -0.23933
C         -7.43327         1.42563        -0.23537
C         -6.22531         0.68930        -0.47376
C         -4.99051         1.40366        -0.50347
C         -3.79444         0.69565        -0.75909
C         -2.58460         1.46377        -1.09490
C         -1.30631         0.70814        -1.32923
C         -0.01963         1.47998        -1.34269
C          1.27141         0.70679        -1.25390
C          2.51946         1.43731        -0.99193
C          3.71740         0.75636        -0.77856
C          4.96800         1.47682        -0.65434
C          6.19315         0.73399        -0.44483
C          7.41655         1.42859        -0.21739
C          8.59417         0.72621         0.08444
C          9.80402         1.44317         0.46338
C         10.99614         0.67926         0.74018
C         -9.86266         2.82239         0.43392
C         -8.68696         3.51694         0.22558
C         -7.42975         2.80126        -0.02478
C         -6.19616         3.53471        -0.08766
C         -4.97280         2.83732        -0.32994
C         -3.74694         3.55463        -0.35339
C         -2.51374         2.88812        -0.69751
C         -1.29601         3.54528        -0.62796
C         -0.02488         2.91034        -0.93460
C          1.17232         3.58997        -0.86950
C          2.45975         2.90112        -1.11986
C          3.75422         3.65880        -0.89088
C          4.98993         2.89076        -0.62385
C          6.17373         3.61977        -0.33633
C          7.50027         2.91746        -0.44739
C          8.61028         3.59198         0.33032
C          9.77836         2.81896         0.62975
C         -8.65275         4.94974         0.28595
C         -7.45376         5.65848         0.23335
C         -6.20417         4.94600         0.06692
C         -4.98096         5.66636         0.06799
C         -3.74553         4.96311        -0.09392
C         -2.52554         5.67230         0.01149
C         -1.26969         4.91173        -0.06927
C          0.01776         5.66273        -0.02329
C          1.20554         5.10158        -0.77482
C          2.48718         5.69285        -0.24339
C          3.68637         5.04934        -0.38097
C          4.92926         5.73047        -0.09129
C          6.15187         5.01406        -0.11278
C          7.37928         5.73013         0.25842
C          8.55424         4.94380         0.56992
C         -7.41924         7.08458         0.36519
C         -6.22190         7.78798         0.37589
C         -4.96940         7.08186         0.24142
C         -3.74393         7.78745         0.27335
C         -2.50680         7.07760         0.17193
C         -1.26644         7.80939         0.21740
C         -0.02237         7.13488         0.12842
C          1.18457         7.81981         0.25639
C          2.44593         7.02329         0.47488
C          3.70769         7.82015         0.27560
C          4.90686         7.15089         0.09118
C          6.19957         7.91118        -0.09930
C          7.38025         7.09610         0.36714
C         -6.18075         9.22481         0.51989
C         -4.99919         9.90473         0.53964
C         -3.73095         9.22111         0.42570
C         -2.52315         9.91094         0.46773
C         -1.26857         9.23008         0.37191
C         -0.03470         9.92079         0.44496
C          1.19406         9.23426         0.41957
C          2.45900         9.91381         0.58029
C          3.66857         9.24522         0.49159
C          4.94686         9.92734         0.66986
C          6.12552         9.30347         0.47037
C        -11.19513        -0.70252         0.11139
C         -9.97946        -1.48533        -0.09080
C         -8.77956        -0.73895        -0.54840
C         -7.50629        -1.49470        -0.91559
C         -6.22419        -0.72280        -0.63488
C         -5.00327        -1.42916        -0.70584
C         -3.76773        -0.71471        -0.81478
C         -2.51012        -1.43380        -0.91806
C         -1.28630        -0.74732        -1.07410
C         -0.03566        -1.43088        -0.95365
C          1.21489        -0.74048        -0.99050
C          2.43841        -1.38042        -0.67914
C          3.68199        -0.68929        -0.62671
C          4.92435        -1.40921        -0.50952
C          6.17724        -0.68007        -0.44217
C          7.40119        -1.40816        -0.24846
C          8.60028        -0.69893         0.06196
C          9.80919        -1.42176         0.32522
C         11.00477        -0.68088         0.66041
C         -9.91443        -2.82962         0.11560
C         -8.65747        -3.55648         0.03097
C         -7.46125        -2.89075        -0.34057
C         -6.22816        -3.57142        -0.31819
C         -4.98729        -2.87635        -0.60242
C         -3.77202        -3.57368        -0.61159
C         -2.51393        -2.86896        -0.79614
C         -1.29733        -3.56984        -0.79924
C         -0.05697        -2.86581        -0.81123
C          1.16294        -3.56821        -0.63139
C          2.38446        -2.81087        -0.35313
C          3.74111        -3.56769        -0.25735
C          4.95217        -2.80873        -0.49849
C          6.21742        -3.56112        -0.82063
C          7.43136        -2.82226        -0.32365
C          8.62567        -3.53760        -0.05046
C          9.80993        -2.81465         0.27008
C         -8.62064        -4.91438         0.38018
C         -7.40770        -5.63287         0.37185
C         -6.19540        -4.95143         0.04112
C         -4.95629        -5.65700         0.06281
C         -3.74844        -4.98932        -0.30690
C         -2.53424        -5.70778        -0.28673
C         -1.30195        -5.08114        -0.89185
C          0.00401        -5.73573        -0.49747
C          1.18852        -4.99306        -0.56147
C          2.47760        -5.70177        -0.64656
C          3.74361        -5.01575        -0.48246
C          4.96195        -5.72755        -0.42526
C          6.18870        -5.01358        -0.40407
C          7.41167        -5.69268        -0.14476
C          8.61721        -4.96325        -0.03866
C         -7.36820        -7.02366         0.68864
C         -6.16860        -7.71971         0.71197
C         -4.93381        -7.03490         0.42360
C         -3.69719        -7.72059         0.51697
C         -2.50372        -7.03565         0.17879
C         -1.20907        -7.68995         0.44576
C          0.03328        -7.11008        -0.09654
C          1.22133        -7.83924         0.02473
C          2.47906        -7.24410        -0.42629
C          3.75480        -7.87035        -0.06958
C          4.95234        -7.16142        -0.18366
C          6.20571        -7.82831         0.08588
C          7.39166        -7.10912         0.08283
C         -6.12219        -9.13459         1.00749
C         -4.94377        -9.81097         1.04576
C         -3.67478        -9.14047         0.84413
C         -2.49406        -9.84817         0.90866
C         -1.19803        -9.16683         0.86302
C          0.06203        -9.89628         0.72225
C          1.24819        -9.22212         0.46469
C          2.51766        -9.90228         0.54025
C          3.72985        -9.24839         0.35358
C          4.99902        -9.91202         0.54547
C          6.17519        -9.23827         0.40279
O          6.37908         8.08379        -1.55045
H          6.39521         7.18737        -1.94932
O          2.99118        -3.15322         0.94083
O         -0.40660         4.94202         1.16490
O          3.22485         3.48439        -2.25439
O          6.31800        -3.57496        -2.30337
H          7.14750        -4.04722        -2.53040
O          2.41701         6.68406         1.91585
H          3.25801         6.22407         2.12445
O          1.08076         5.58432        -2.15008
H          1.76835         5.11466        -2.67704
O         -9.13293         0.26748        -1.57484
O         -1.42225        -5.37771        -2.33678
H         -0.62818        -5.01063        -2.78113
O          7.88783         3.05937        -1.86617
H          8.73257         2.57480        -1.98465
O         -7.53287        -1.67171        -2.36486
H         -7.95657        -0.86142        -2.73205
O         -9.46139         1.05979         1.99346
H        -10.10913         1.51469         2.57150
O          0.71917         1.17127        -2.56300
O         -2.13804         1.14026        -2.46365
O         -1.08243        -8.06640         1.85664
O          2.46865        -6.66471        -1.76287
H         11.92665        -1.24358         0.86860
H         11.91023         1.22481         1.01733
H         10.66556         3.33403         1.02940
H          9.42326         5.45811         1.00926
H          8.30795         7.61865         0.64824
H          7.07149         9.84365         0.62797
H          4.92412        10.97331         1.01289
H          2.45204        11.00066         0.75369
H         -0.04028        11.01431         0.56857
H         -2.52710        11.00499         0.58740
H         -4.99300        10.99923         0.65091
H         -7.13305         9.76740         0.61456
H         -8.37024         7.62774         0.47371
H         -9.59738         5.49316         0.43856
H        -10.79283         3.37343         0.64458
H        -12.08901         1.18654         0.51969
H        -12.16024        -1.23128         0.06945
H        -10.80864        -3.38117         0.44308
H         -9.55262        -5.42799         0.65912
H         -8.30956        -7.54614         0.91564
H         -7.07076        -9.65947         1.19412
H         -4.92909       -10.88841         1.26733
H         -2.51452       -10.94104         1.03695
H          0.07324       -10.98345         0.89171
H          2.51904       -10.96325         0.83176
H          4.99784       -10.97630         0.82306
H          7.13231        -9.75497         0.56787
H          8.34088        -7.62199         0.29913
H          9.55272        -5.49980         0.17692
H         10.73482        -3.36974         0.48690
