         228
 CSIRO Nanostructure Databank - Neutral Graphene Oxide Data Set
C        -11.21795         0.87192        -0.58055
C         -9.97967         1.61686        -0.69314
C         -8.75823         0.87027        -0.93299
C         -7.55191         1.65525        -1.40244
C         -6.27486         0.85229        -1.37150
C         -5.00179         1.35828        -0.76213
C         -3.72794         0.79213        -1.49804
C         -2.47790         1.67402        -1.40833
C         -1.13112         1.20683        -1.78260
C          0.05536         1.67411        -1.29802
C          1.30676         0.88206        -1.36866
C          2.52429         1.59800        -0.88947
C          3.75566         0.85598        -0.72135
C          4.97042         1.50100        -0.66036
C          6.20277         0.78704        -0.37103
C          7.48814         1.46148        -0.47124
C          8.67505         0.81058        -0.18846
C          9.95835         1.46125        -0.42825
C         11.12841         0.59282        -0.56848
C         -9.94400         2.98457        -0.49514
C         -8.68392         3.69067        -0.40372
C         -7.50735         3.00819        -0.71582
C         -6.23188         3.71648        -0.64985
C         -4.97692         2.89705        -0.76210
C         -3.75197         3.52429        -0.18289
C         -2.47280         2.82658        -0.44641
C         -1.16579         3.49443        -0.08550
C          0.05321         3.13356        -0.89464
C          1.32170         3.68491        -0.31142
C          2.53789         2.94394        -0.53523
C          3.78837         3.65317        -0.36207
C          4.99056         2.98392        -0.96121
C          6.27588         3.66474        -0.60370
C          7.50681         2.89636        -0.84566
C          8.83136         3.64248        -0.78218
C         10.04105         2.82251        -0.58831
C         -8.63879         5.06273         0.00982
C         -7.43028         5.76158         0.17693
C         -6.18234         5.08098        -0.06175
C         -4.98087         5.72440         0.21370
C         -3.70687         5.00963         0.00002
C         -2.42245         5.66013         0.39803
C         -1.18188         4.83932         0.54557
C          0.10895         5.56751         0.74609
C          1.35043         4.90833         0.30432
C          2.63373         5.47424         0.87317
C          3.84746         4.92987         0.14784
C          5.07415         5.70152         0.06550
C          6.30105         5.01398        -0.32718
C          7.56900         5.74120        -0.31262
C          8.77306         5.07733        -0.47889
C         -7.37592         7.13662         0.56449
C         -6.16500         7.81148         0.73565
C         -4.91950         7.10201         0.60888
C         -3.68093         7.77654         0.81122
C         -2.42285         7.08555         0.80924
C         -1.21557         7.76614         0.93823
C          0.08143         7.05234         1.01741
C          1.34411         7.77603         0.88459
C          2.61454         7.02155         1.00054
C          3.90445         7.79313         0.84806
C          5.09855         7.06885         0.32194
C          6.29044         7.82462         0.00470
C          7.49060         7.17709        -0.22230
C         -6.11194         9.22474         1.03423
C         -4.92458         9.88799         1.14048
C         -3.65769         9.20171         1.02011
C         -2.44244         9.88912         1.04240
C         -1.18579         9.20790         0.94633
C          0.03969         9.87353         0.79023
C          1.31530         9.19149         0.71809
C          2.50503         9.90334         0.50065
C          3.86912         9.33178         0.80623
C          5.00294         9.92716         0.01194
C          6.15534         9.26243        -0.20335
C        -11.20819        -0.48064        -0.46025
C         -9.95472        -1.20812        -0.38561
C         -8.72659        -0.49482        -0.73894
C         -7.51788        -1.28075        -0.94549
C         -6.32766        -0.61056        -1.52108
C         -5.02712        -1.40143        -1.58563
C         -3.68526        -0.71652        -1.65641
C         -2.54765        -1.49795        -1.76444
C         -1.19526        -0.97295        -1.94860
C         -0.03534        -1.46736        -1.39567
C          1.23909        -0.67420        -1.35781
C          2.35090        -1.33466        -0.56420
C          3.59900        -0.54675        -0.26964
C          4.85745        -1.24678         0.13763
C          6.14893        -0.56480        -0.09779
C          7.36042        -1.31165         0.28765
C          8.66948        -0.57551         0.33546
C          9.98277        -1.34526         0.49553
C         11.10326        -0.72909        -0.30452
C         -9.89774        -2.51073         0.02360
C         -8.56478        -3.11850         0.34613
C         -7.46046        -2.60022        -0.54645
C         -6.27154        -3.40338        -0.74272
C         -5.09507        -2.82834        -1.17570
C         -3.88535        -3.65928        -1.39405
C         -2.57353        -2.98477        -1.66007
C         -1.26764        -3.70986        -1.32859
C          0.09707        -2.99030        -1.37759
C          1.19148        -3.56789        -0.51163
C          2.37598        -2.81665        -0.35161
C          3.54287        -3.45629         0.13271
C          4.81727        -2.72464         0.36837
C          6.08724        -3.49708         0.33805
C          7.35984        -2.78785        -0.05893
C          8.62546        -3.51231         0.34045
C          9.82041        -2.84958         0.37090
C         -8.57424        -4.61051         0.53558
C         -7.53821        -5.40808         0.22658
C         -6.39586        -4.92714        -0.65652
C         -5.07671        -5.57697        -0.14671
C         -3.85721        -5.07492        -0.90561
C         -2.55889        -5.68062        -0.51506
C         -1.34968        -5.02410        -0.62646
C         -0.11002        -5.67382        -0.21566
C          1.15701        -4.94246        -0.19668
C          2.34537        -5.59144         0.25553
C          3.53390        -4.83825         0.39927
C          4.77619        -5.49707         0.87313
C          6.07638        -4.83089         0.60286
C          7.32084        -5.60117         0.65709
C          8.53270        -4.94350         0.53534
C         -7.49691        -6.79522         0.85569
C         -6.40193        -7.72254         0.36013
C         -5.15783        -7.10352        -0.17404
C         -3.84330        -7.88689        -0.19777
C         -2.65167        -7.00195         0.13576
C         -1.35842        -7.72114         0.43975
C         -0.11679        -7.01401         0.13612
C          1.14292        -7.77804         0.15675
C          2.37902        -7.03225         0.42571
C          3.53363        -7.72742         0.74276
C          4.77779        -6.99067         1.04046
C          6.06977        -7.71730         0.99508
C          7.25425        -7.03221         0.85852
C         -6.30278        -9.06963         0.97378
C         -5.11819        -9.71438         1.08737
C         -3.85139        -9.14601         0.66041
C         -2.67245        -9.77993         0.94399
C         -1.37302        -9.19121         0.65879
C         -0.20788        -9.89436         0.75020
C          1.10613        -9.27573         0.46207
C          2.35248        -9.87816         0.94042
C          3.53454        -9.16393         0.94181
C          4.80896        -9.81458         1.20524
C          5.99962        -9.15109         1.16272
O          4.66343        -6.09213         2.20963
O          2.72182         4.93962         2.22019
H          1.92160         5.25570         2.70167
O          0.16638         6.05471         2.13616
O         -5.46054         3.55342        -1.95014
O         -3.63013        -8.30847        -1.56616
H         -4.51776        -8.50034        -1.94748
O         -5.83248        -1.15439        -2.80573
O          4.77897        -1.78934         1.50770
O          4.10428         9.81371         2.17151
H          3.72906         9.11889         2.76667
O          8.18584         3.26893        -2.09060
O          4.88694         3.13920        -2.42189
H          5.77403         2.95669        -2.80211
O         -2.85579         5.61639        -1.03223
O         -8.22368        -2.61478         1.69956
H         -7.26794        -2.78310         1.84453
O          1.22404        -8.76857        -0.92677
O         -6.14916        -7.67351        -1.08168
O          1.60359         0.06034        -2.55583
O          3.45291         7.36722         2.17816
O         -3.38142         1.70338        -2.56854
O         -6.70326        -5.35826        -1.99251
H         -5.90623        -5.18423        -2.55078
O         -7.79355         1.97686        -2.82483
H         -7.00950         2.49257        -3.12484
O          7.34813        -2.77165        -1.53095
H          7.44711        -3.69676        -1.84141
O         -0.14431         3.87094        -2.14801
H          0.51943         3.55537        -2.79807
O         -5.01975         0.83428         0.59250
H         -4.31121         1.29813         1.10664
O          2.52689        -0.64968         0.73181
O          0.64452        -3.24675        -2.70738
H         -0.11775        -3.26460        -3.33475
O         -4.88311        -5.16991         1.22853
H         -5.54788        -5.63446         1.79432
O         -1.83209        -3.70572        -2.68548
O         -2.16760        -7.04523         1.49720
O         -3.20317         2.63578         0.83303
O         -1.08788         3.62171         1.35931
O          7.87602        -0.82306         1.56183
O         10.40655        -1.17191         1.88385
H          9.58313        -1.20014         2.42558
O         -7.21095        -6.60481         2.26233
H         -7.90508        -6.02686         2.64406
O         -1.11941         0.18627        -2.72401
O         -4.09902        -4.80310        -2.31503
H         11.99606        -1.34387        -0.49386
H         12.02826         1.04227        -1.01644
H         11.02662         3.30685        -0.66523
H          9.71790         5.63210        -0.37263
H          8.39840         7.76822        -0.41502
H          7.01153         9.78371        -0.65886
H          4.93672        11.00000        -0.22399
H          2.44668        10.99935         0.41087
H          0.04336        10.97227         0.73443
H         -2.44623        10.98692         1.11794
H         -4.91424        10.97138         1.33094
H         -7.06048         9.77157         1.14048
H         -8.32079         7.68390         0.70164
H         -9.58870         5.58348         0.20144
H        -10.87505         3.53421        -0.29299
H        -12.16459         1.43120        -0.55073
H        -12.14626        -1.03984        -0.33024
H        -10.81589        -3.05440         0.29202
H         -9.39027        -5.00741         1.16486
H         -8.50207        -7.29298         0.75538
H         -7.22176        -9.52682         1.36945
H         -5.08414       -10.69865         1.58011
H         -2.69278       -10.76390         1.43960
H         -0.23219       -10.96355         1.01180
H          2.34377       -10.92696         1.27387
H          4.79935       -10.90312         1.36402
H          6.94166        -9.70782         1.27805
H          8.20282        -7.59115         0.87186
H          9.46806        -5.51060         0.66084
H         10.73230        -3.43348         0.58019
