         635
 CSIRO Nanostructure Databank - Neutral Graphene Oxide Data Set
C         23.20523        69.97667        -2.14350
C         23.26070        71.47932        -2.00506
C         22.08530        72.20979        -2.15523
C         23.28235        74.30182        -1.92026
C         22.09689        73.62017        -2.10654
C         25.67969        65.72340        -1.50206
C         25.68181        67.12734        -1.52644
C         24.48498        67.87844        -1.74387
C         25.69409        69.99142        -1.54335
C         24.48961        69.26277        -1.78680
C         25.70610        71.42689        -1.55340
C         24.48901        72.15557        -1.77828
C         25.72271        74.27365        -1.54607
C         24.50512        73.58953        -1.74566
C         28.03881        61.41705        -0.84837
C         28.05663        62.83043        -1.00662
C         26.87290        63.56928        -1.24453
C         28.13119        65.68460        -1.23701
C         26.87876        64.97886        -1.32508
C         28.13601        67.12990        -1.22261
C         26.91211        67.84555        -1.33680
C         28.10820        69.98325        -1.00396
C         26.90587        69.27348        -1.29217
C         28.11830        71.42804        -0.99066
C         26.91052        72.13305        -1.30346
C         28.15039        74.25808        -1.11827
C         26.92802        73.57256        -1.32354
C         30.38534        57.11969        -0.15742
C         30.38465        58.54313        -0.05758
C         29.21422        59.28080        -0.33929
C         30.42743        61.42893        -0.33329
C         29.20235        60.70388        -0.50067
C         30.50377        62.79963        -0.58496
C         29.30960        63.53481        -0.92235
C         30.61468        65.65384        -1.18269
C         29.32487        64.94312        -1.09506
C         30.62806        67.16842        -1.08208
C         29.33448        67.86428        -1.01523
C         30.54733        69.95911        -0.48980
C         29.32120        69.26356        -0.83337
C         30.47949        71.41895        -0.10565
C         29.29839        72.13670        -0.70393
C         30.57676        74.26063        -0.64878
C         29.34162        73.56437        -0.81614
C         32.86959        52.82346        -0.24490
C         32.85084        54.23600        -0.21649
C         31.61196        54.97795        -0.24364
C         32.83554        57.03347         0.43871
C         31.56100        56.35878        -0.02634
C         32.83262        58.54629         0.33653
C         31.62378        59.23718         0.21931
C         32.92425        61.35364        -0.00064
C         31.56493        60.74479         0.39094
C         32.92584        62.86391         0.01097
C         31.77698        63.50267        -0.42969
C         33.09875        65.70220        -0.42764
C         31.86313        64.90739        -0.84733
C         32.98173        67.16422        -0.24100
C         31.82663        67.85750        -0.55275
C         32.90029        70.00753         0.32070
C         31.73043        69.28060        -0.31234
C         32.97695        71.46713        -0.06390
C         31.79861        72.14770        -0.27182
C         33.02997        74.27978        -0.34081
C         31.80176        73.58706        -0.43524
C         35.34768        48.52490        -0.48764
C         35.31301        49.95176        -0.31744
C         34.11791        50.66820        -0.24271
C         35.30854        52.83334        -0.09546
C         34.08782        52.11031        -0.18030
C         35.31685        54.24600        -0.16409
C         34.08650        54.94210        -0.21210
C         35.37145        57.06370         0.13143
C         34.02933        56.45316        -0.32728
C         35.33746        58.58278         0.15810
C         34.09806        59.21727         0.40374
C         35.36162        61.41458         0.61473
C         34.06598        60.67699         0.76875
C         35.31588        62.88157         0.96236
C         34.12429        63.59852         0.34012
C         35.35752        65.73022         0.79727
C         34.15540        64.97356         0.28049
C         35.39858        67.17395         0.38641
C         34.19271        67.88410         0.12652
C         35.49097        69.99474        -0.01663
C         34.19184        69.27705         0.14594
C         35.44329        71.47441         0.22453
C         34.24224        72.16229         0.01364
C         35.48856        74.28534        -0.01211
C         34.25458        73.60391        -0.10278
C         37.76040        44.22153        -0.45053
C         37.72201        45.65556        -0.60694
C         36.55235        46.37187        -0.57428
C         37.80786        48.52734        -0.54766
C         36.53863        47.81969        -0.58339
C         37.76263        49.96489        -0.39512
C         36.57640        50.65080        -0.23631
C         37.83909        52.84992        -0.07129
C         36.57302        52.08874         0.24090
C         37.79656        54.28286        -0.21327
C         36.59759        54.95375        -0.24451
C         37.83824        57.18938        -0.48821
C         36.52825        56.40822        -0.65997
C         37.81745        58.66877        -0.24609
C         36.53767        59.32124         0.11765
C         37.81541        61.43715         0.59528
C         36.54959        60.73749         0.41442
C         37.81165        62.86868         0.73524
C         36.61781        63.57329         0.66094
C         37.87667        65.75491         0.75039
C         36.62931        65.02625         0.31423
C         37.84689        67.13867         0.88937
C         36.60944        67.88599         0.65719
C         37.78993        70.03715         1.20090
C         36.63574        69.27097         0.62339
C         37.87478        71.46508         0.70759
C         36.67878        72.16465         0.39463
C         37.94029        74.27750         0.37353
C         36.70186        73.60101         0.24655
C         40.18570        39.95091        -0.29590
C         40.19593        41.30984        -0.19671
C         38.87950        42.04332        -0.02043
C         40.21111        44.23541        -0.22979
C         38.93389        43.53087        -0.28247
C         40.23683        45.59842        -0.40529
C         39.02463        46.35555        -0.89765
C         40.26756        48.46981        -0.22869
C         39.01962        47.82387        -0.53488
C         40.30100        49.95249        -0.20659
C         39.03328        50.71045        -0.38032
C         40.31468        52.84800        -0.08383
C         39.03360        52.16622        -0.13881
C         40.32641        54.25293        -0.13551
C         39.08897        54.99190        -0.58591
C         40.19618        57.06819         0.34816
C         39.08332        56.44772        -0.17466
C         40.10745        58.49977         0.89141
C         39.15854        59.36051         0.04762
C         40.23712        61.40575         0.97666
C         39.03519        60.75064         0.62697
C         40.25848        62.83565         1.10907
C         39.06576        63.57206         0.87893
C         40.31845        65.66250         1.12416
C         39.09493        64.99621         0.92384
C         40.35968        67.14219         0.84391
C         39.06508        67.88364         1.04641
C         40.32319        70.00726         1.22956
C         39.09188        69.27244         1.11289
C         40.31757        71.45623         1.16252
C         39.09908        72.15279         0.82451
C         40.37317        74.26191         0.84905
C         39.13154        73.58201         0.64974
C         42.69962        35.78691        -1.42473
C         42.70138        37.13569        -1.13655
C         41.41353        37.92465        -1.19616
C         42.69971        39.90240        -0.30934
C         41.42630        39.10123        -0.20799
C         42.68073        41.31110        -0.15470
C         41.44475        42.04394        -0.13372
C         42.68706        44.14511         0.02388
C         41.45977        43.46369        -0.07948
C         42.65456        45.63148         0.26643
C         41.54775        46.33616        -0.51027
C         42.70234        48.50160         0.23757
C         41.46737        47.79240        -0.08875
C         42.71362        49.90115         0.42373
C         41.41327        50.64729         0.54037
C         42.74923        52.76281         0.34408
C         41.51633        52.11590         0.20500
C         42.85092        54.24554         0.04773
C         41.51679        54.97850         0.12912
C         42.69214        57.11912         0.59662
C         41.44466        56.34253         0.42387
C         42.64105        58.44849         1.31984
C         41.42466        59.25058         0.99480
C         42.70116        61.32264         1.44389
C         41.46280        60.63385         1.12504
C         42.59384        62.72522         2.01402
C         41.46069        63.52188         1.41883
C         42.77274        65.61887         1.59882
C         41.50858        64.93083         1.39458
C         42.76830        67.09819         1.68485
C         41.51129        67.85009         1.49608
C         42.77454        69.99366         1.61574
C         41.55099        69.32688         1.37764
C         42.72649        71.46351         1.95744
C         41.50495        72.16892         1.39068
C         42.76684        74.36744         1.58691
C         41.51830        73.58501         1.24216
C         45.09831        32.93846        -1.78236
C         43.90755        33.63966        -1.71700
C         45.15597        35.71117        -1.28807
C         43.91315        35.03586        -1.46725
C         45.15740        37.11130        -0.96630
C         43.93305        37.80362        -0.83971
C         45.15798        39.88286        -0.28771
C         43.92684        39.20723        -0.47391
C         45.15514        41.29644        -0.04146
C         43.92165        42.01416        -0.05350
C         45.17254        44.11371         0.18319
C         43.92469        43.43626         0.06235
C         45.23475        45.58217         0.08469
C         43.96195        46.35139        -0.00564
C         45.14305        48.47021         0.60257
C         43.94532        47.80516         0.29677
C         45.12360        49.86705         0.81016
C         43.92255        50.60192         0.64589
C         45.20499        52.73958         0.84696
C         43.94974        52.05152         0.63411
C         45.22786        54.19256         0.93106
C         43.89168        54.89165         0.96303
C         45.18149        57.10719         1.12344
C         43.99067        56.37393         0.69942
C         45.13575        58.50167         1.08514
C         43.92103        59.22051         1.18525
C         45.20819        61.32073         1.55525
C         43.92035        60.62414         1.42681
C         45.22621        62.75103         1.94190
C         43.92839        63.48629         2.09087
C         45.21133        65.68989         2.00828
C         43.95747        64.96428         1.89022
C         45.26448        67.07556         1.86086
C         44.04818        67.81767         1.36446
C         45.23439        69.98145         1.76874
C         44.00070        69.29479         1.68362
C         45.24162        71.42718         1.67534
C         44.02910        72.16249         1.65918
C         45.25590        74.23040         1.30551
C         44.04585        73.56347         1.48522
C         46.32836        33.60976        -1.63676
C         47.71242        35.67016        -1.33811
C         46.37066        34.98074        -1.40386
C         47.65401        37.12148        -0.91761
C         46.41111        37.79498        -0.76269
C         47.63823        39.84903        -0.21511
C         46.41044        39.17676        -0.40724
C         47.67810        41.25818         0.31459
C         46.37215        41.99200         0.14983
C         47.65094        44.11054         0.40874
C         46.38263        43.39755         0.25092
C         47.61861        45.53981         0.66825
C         46.47147        46.26758         0.49416
C         47.64563        48.41927         1.04655
C         46.47606        47.77575         0.37202
C         47.63759        49.81462         1.41185
C         46.31964        50.58782         1.27537
C         47.61100        52.73019         1.69701
C         46.37377        52.03565         1.14605
C         47.66501        54.18610         1.27896
C         46.40385        54.87811         1.15056
C         47.64259        56.97862         0.59813
C         46.46426        56.37449         1.41272
C         47.65572        58.52162         0.70223
C         46.38185        59.26819         0.90900
C         47.64094        61.48991         0.91768
C         46.39107        60.69971         1.26632
C         47.66239        62.86999         1.52857
C         46.49364        63.51383         1.83548
C         47.73656        65.68946         1.97836
C         46.48690        64.93806         2.37151
C         47.73716        67.10322         1.93940
C         46.48790        67.82310         1.91760
C         47.71434        69.96356         1.74717
C         46.47312        69.24670         1.80708
C         47.72037        71.39089         1.62401
C         46.48175        72.11124         1.55141
C         47.72227        74.21177         1.21309
C         46.49345        73.53101         1.34891
C         48.85212        37.80896        -0.74351
C         50.11068        39.92003        -0.27352
C         48.87120        39.18752        -0.40492
C         50.14236        41.30442        -0.17842
C         48.83335        42.05092        -0.31470
C         50.12378        44.15907         0.36421
C         48.85945        43.46320         0.22658
C         50.15346        45.46779         0.80274
C         48.89073        46.18329         1.08764
C         50.15634        48.44008         1.20757
C         48.89420        47.68242         1.23511
C         50.14604        49.81609         1.28562
C         48.91033        50.57170         1.38755
C         50.16056        52.68135         1.50163
C         48.90888        51.95589         1.46496
C         50.10988        54.15067         1.60969
C         48.87218        54.88244         1.24647
C         50.16251        56.96999         0.80345
C         48.94769        56.29766         0.97360
C         50.20351        58.47200         0.93784
C         48.90905        59.24015         1.09581
C         50.12977        61.38117         1.32505
C         48.93308        60.72100         1.12504
C         50.15492        62.83732         1.48532
C         48.93630        63.55180         1.60266
C         50.17296        65.67400         1.61254
C         48.94056        64.97222         1.77213
C         50.18771        67.09513         1.65676
C         48.96665        67.81427         1.80335
C         50.17045        69.97172         1.67601
C         48.95476        69.25623         1.75071
C         50.17984        71.38034         1.61651
C         48.94885        72.09599         1.55908
C         50.17149        74.23879         1.32307
C         48.96415        73.53665         1.35056
C         51.34757        42.04836        -0.09472
C         52.59867        44.16017         0.13344
C         51.37621        43.43926         0.11763
C         52.66861        45.53213         0.44645
C         51.43368        46.18288         0.96345
C         52.60157        48.43780         0.56622
C         51.43305        47.67713         1.15578
C         52.71388        49.81589         1.18571
C         51.42578        50.55303         1.44918
C         52.64219        52.75173         1.28275
C         51.39181        52.03187         1.42870
C         52.66907        54.12879         1.29791
C         51.43033        54.89797         1.50885
C         52.58275        56.70783         0.34034
C         51.39513        56.23831         0.90618
C         52.57960        58.82206         0.19346
C         51.39304        59.32755         0.74081
C         52.64788        61.36393         1.17128
C         51.39849        60.68008         1.15923
C         52.70541        62.80172         1.64103
C         51.38576        63.52858         1.50191
C         52.59486        65.65310         1.12440
C         51.39079        64.94414         1.45165
C         52.58316        67.08798         1.10741
C         51.42687        67.78525         1.46360
C         52.61107        69.96865         1.08093
C         51.48861        69.25365         1.79029
C         52.56066        71.40142         1.03780
C         51.42684        72.09180         1.44066
C         52.66976        74.28626         1.12051
C         51.46808        73.57973         1.69477
C         53.86603        46.27152         0.38498
C         55.09236        48.42659         0.48123
C         53.91653        47.68663         0.54672
C         55.11950        49.87812         0.53537
C         53.93451        50.56265         0.84912
C         55.14375        52.74899         0.55843
C         53.85498        52.02009         0.80410
C         55.23024        54.18602         0.93457
C         53.93530        54.90637         1.18674
C         55.06217        57.07257         0.47233
C         53.88421        56.29209         0.69824
C         55.06368        58.51517         0.38814
C         53.85404        59.33706         0.48208
C         55.17332        61.38418         1.12338
C         53.85349        60.68447         0.93070
C         55.08358        62.85467         0.76841
C         53.86163        63.54645         0.99488
C         54.87519        65.63854         0.04454
C         53.77301        64.93113         0.79041
C         54.93913        67.12049         0.30813
C         53.79807        67.81679         0.74059
C         54.97594        69.98757         0.34961
C         53.75615        69.25133         0.73570
C         54.86338        71.41231        -0.05779
C         53.65637        72.15812         0.38826
C         54.98771        74.26264         0.25352
C         53.74588        73.62447         0.57800
C         56.34496        50.60230         0.33577
C         57.58669        52.77889         0.24195
C         56.41272        52.00228         0.40285
C         57.57674        54.20532         0.19761
C         56.38535        54.94805         0.45721
C         57.54810        57.07831         0.18070
C         56.33381        56.36231         0.40941
C         57.53496        58.51072         0.15676
C         56.30278        59.21714         0.34670
C         57.47279        61.36582         0.11230
C         56.32659        60.65913         0.45056
C         57.49579        62.82945         0.15338
C         56.25667        63.55177         0.42108
C         57.38278        65.68697        -0.07161
C         56.21886        64.96513         0.18341
C         57.34670        67.09926        -0.29677
C         56.13977        67.78072        -0.06962
C         57.18450        69.92058        -1.00324
C         56.19238        69.24962        -0.07540
C         57.23903        71.41509        -0.72433
C         56.14245        72.11941        -0.30301
C         57.38931        74.24295        -0.29614
C         56.15455        73.56990        -0.12824
C         58.76746        54.95883        -0.02749
C         60.09183        57.06004        -0.08839
C         58.76407        56.34444         0.00265
C         59.99123        58.55907        -0.24467
C         58.74232        59.23669        -0.07078
C         59.87872        61.37752        -0.47450
C         58.70466        60.66307        -0.18488
C         59.80241        62.84073        -0.81021
C         58.63262        63.52945        -0.17071
C         59.86653        65.72999        -0.51618
C         58.70761        65.00565         0.11948
C         59.82233        67.10059        -0.73379
C         58.56013        67.84666        -0.64460
C         59.71100        69.85884        -1.62815
C         58.52471        69.19434        -0.94515
C         59.69720        71.39333        -1.55143
C         58.44113        72.15121        -1.14309
C         59.78577        74.20437        -0.87611
C         58.54811        73.56894        -0.73783
C         61.14474        59.27642        -0.49290
C         62.31835        61.43905        -0.78379
C         61.12832        60.70308        -0.60359
C         62.32971        62.86786        -0.77202
C         61.10353        63.58337        -0.65732
C         62.31532        65.70747        -0.85089
C         61.09554        64.99372        -0.66600
C         62.29072        67.12559        -0.98415
C         61.04666        67.82539        -1.00277
C         62.24648        69.92555        -1.39283
C         61.03431        69.21879        -1.25783
C         62.23269        71.38383        -1.81861
C         60.96991        72.12640        -1.44364
C         62.24621        74.32635        -1.22480
C         60.97200        73.49633        -1.21444
C         63.54507        63.58824        -0.87484
C         64.75965        65.72502        -1.16655
C         63.55352        64.99219        -0.94011
C         64.75690        67.10811        -1.28648
C         63.50965        67.84192        -1.15690
C         64.80964        69.97359        -1.25664
C         63.47963        69.24385        -1.29154
C         64.71121        71.39470        -1.73392
C         63.48761        72.13199        -1.28096
C         64.39722        74.11428        -2.51176
C         63.43141        73.56072        -1.73989
C         65.93014        67.81200        -1.73394
C         66.97894        69.87396        -2.56484
C         65.92854        69.18303        -1.89410
C         66.87754        71.22375        -2.88877
C         65.69319        71.98078        -2.49640
C         66.58770        73.95150        -3.65255
C         65.57420        73.36975        -2.91414
C         67.89599        71.89435        -3.64224
C         67.74951        73.20993        -4.01013
O         51.68354        46.81524         2.28719
O         32.92879        65.19633        -1.79881
O         54.84764        54.57788         2.29562
O         39.95656        50.45403        -1.52990
O         46.78024        50.12113         2.61856
O         52.47522        57.70416        -0.63795
O         58.78467        71.94464        -2.56674
O         47.00029        59.09540        -0.47386
O         49.58313        58.71195         2.27523
O         48.80551        46.75867         2.43993
O         53.81600        71.71627        -1.02572
O         56.11685        69.81363         1.27979
O         30.77859        66.47574        -2.37798
O         50.76806        54.71409         2.79489
O         37.90608        58.13821        -1.63685
O         44.63898        63.02088         3.30009
O         41.95403        67.48265         2.85088
O         43.52686        56.96272        -0.58660
O         54.22224        52.53181        -0.56768
O         52.24866        49.98562         2.55509
O         47.54111        61.73419        -0.52638
H         47.39181        60.85265        -0.94998
O         32.97439        56.71854         1.86085
H         32.17004        57.04186         2.31918
O         51.59760        73.72548         3.16724
H         50.90473        73.16646         3.58008
O         46.70422        47.98835        -1.08675
H         46.01127        47.44527        -1.54388
O         37.48700        70.15797         2.64281
H         38.22208        70.66117         3.05355
O         36.57862        65.10549        -1.15071
H         37.26866        64.51165        -1.51488
O         33.17958        60.99126        -1.38433
H         32.56735        61.50012        -1.95667
O         35.16580        62.98133         2.42017
H         34.43338        62.36778         2.67096
O         35.63267        56.67167         1.50378
H         34.77865        56.70587         1.99976
O         42.34985        45.82928         1.67575
H         42.95063        45.26816         2.20890
O         33.73852        56.80565        -1.69362
H         34.51733        56.52912        -2.24032
O         31.23880        61.00715         1.78488
H         32.00843        60.72151         2.33236
O         41.25031        38.41246        -2.53211
H         40.47571        39.01210        -2.54178
O         41.41161        38.47880         1.11902
H         41.43662        39.19682         1.78560
O         42.85174        75.56274         0.80486
H         42.91848        75.30877        -0.13815
O         39.16930        46.34015        -2.37953
H         38.99882        45.41981        -2.67476
O         54.51640        65.52392        -1.38643
H         54.59202        64.57673        -1.63000
O         33.77840        60.69691         2.22981
H         34.46460        60.13994         2.65807
O         46.73578        56.56603         2.82478
H         47.50875        56.01151         3.07000
O         55.45023        61.33496         2.57346
H         56.34904        61.70100         2.71691
O         56.69789        69.76355        -2.36209
H         57.34272        70.22816        -2.94610
O         47.96217        41.18393         1.74458
H         47.25397        40.65345         2.16523
O         63.39425        72.12394         0.16649
H         63.91400        71.34758         0.49728
O         62.03168        75.53517        -1.95831
H         61.77729        75.29552        -2.87298
O         36.24087        56.35689        -2.07846
H         36.71348        57.11692        -2.49602
O         37.84395        41.42965        -0.79648
H         38.04383        41.57325        -1.74372
O         42.57228        71.52834         3.42611
H         41.97353        70.79879         3.69416
O         59.55366        69.56875        -3.06364
H         59.48141        68.59503        -3.16139
O         35.39380        65.70818         2.24391
H         34.65694        66.25565         2.58512
O         39.57418        58.39120         2.23611
H         40.28066        57.99161         2.79319
O         46.53766        64.85427         3.83326
H         45.80650        64.24491         4.09984
O         52.23120        48.65079        -0.83217
H         52.98564        49.08653        -1.28344
O         35.78808        69.90157        -1.48684
H         35.74595        68.95089        -1.73192
O         52.99997        62.76738         3.07535
H         53.82862        62.23725         3.18166
O         43.37872        54.75045         2.31711
H         44.02693        55.14886         2.93653
O         41.01837        50.56184         1.95206
H         41.70614        51.01430         2.48525
O         60.89843        56.49927        -1.13612
H         60.43738        56.64598        -1.98716
O         22.10699        69.44152        -1.38719
H         22.26097        69.64435        -0.44192
O         48.59218        42.16017        -1.74461
H         47.76378        42.66946        -1.87393
O         47.41644        52.74638         3.15125
H         47.24725        51.80657         3.41378
O         47.43776        56.62519        -0.78257
H         46.90361        57.34560        -1.19423
O         44.13144        67.73691        -0.10300
H         44.95866        68.18566        -0.37911
O         65.15304        70.04755         0.18927
H         66.07477        70.37911         0.24955
O         62.30751        71.40298        -3.26833
H         61.47393        71.01106        -3.61190
O         40.65338        67.24803        -0.59573
H         39.88170        66.89109        -1.08432
O         48.61277        34.94054        -0.48680
H         48.23490        34.92919         0.41622
O         32.62538        69.98987         1.76942
H         31.75499        70.45043         1.89229
O         39.85824        59.58934        -1.20237
H         39.39856        59.05647        -1.89576
O         44.67425        46.04305        -1.24631
O         42.15417        62.51171         3.39752
H         42.97364        62.44079         3.94211
O         58.99526        65.09830         1.57144
H         58.18933        64.80628         2.04862
O         39.12643        54.98138        -2.05691
H         39.92264        55.48153        -2.33557
O         51.83810        69.31709         3.22610
H         52.70806        68.87655         3.33679
O         36.56056        51.98128         1.71828
H         35.71207        51.55875         1.97167
O         43.34325        54.36258        -1.30950
H         42.70921        53.91218        -1.90520
O         41.91339        46.33150        -1.91260
H         41.11303        46.61039        -2.42006
O         42.48301        58.05960         2.75048
H         42.56686        58.88112         3.28213
O         30.23075        71.41454         1.36375
H         30.14973        72.35257         1.64235
O         59.51526        62.89001        -2.27085
H         60.24792        62.41615        -2.72024
H         23.29696        75.40091        -1.89537
H         25.73026        75.37381        -1.54697
H         28.16690        75.35615        -1.18236
H         30.58013        75.35604        -0.74910
H         33.03366        75.37563        -0.44184
H         35.50932        75.37752        -0.14657
H         37.96578        75.37402         0.28447
H         40.41129        75.35532         0.73222
H         42.66895        74.70052         2.65808
H         45.25448        75.32153         1.16739
H         47.71975        75.29978         1.04982
H         50.15611        75.32791         1.16525
H         52.72618        75.37426         1.28100
H         55.05432        75.35368         0.38652
H         57.44876        75.32095        -0.08303
H         59.86821        75.27973        -0.66049
H         62.46597        74.62939        -0.16358
H         64.31055        75.16798        -2.82001
H         66.50198        75.00192        -3.96533
H         22.97534        69.74231        -3.22146
H         21.13853        71.67533        -2.31593
H         21.15535        74.17307        -2.23092
H         24.72741        65.18393        -1.61529
H         23.53955        67.34072        -1.90845
H         27.08449        60.88002        -0.95557
H         25.91573        63.03311        -1.32851
H         29.45122        56.61316        -0.44757
H         28.28118        58.72886        -0.53173
H         31.92098        52.26836        -0.29739
H         30.67976        54.43083        -0.45589
H         34.39350        47.97600        -0.50529
H         33.16122        50.12938        -0.31760
H         36.80736        43.67149        -0.41132
H         35.59380        45.84420        -0.44790
H         39.21482        39.42942        -0.29723
H         38.57771        41.90734         1.05797
H         41.75003        35.27301        -1.63724
H         40.54624        37.25105        -0.93566
H         45.09132        31.85513        -1.96725
H         42.94716        33.12203        -1.85321
H         47.27046        33.04841        -1.71016
H         48.16880        35.63087        -2.36733
H         49.80209        37.27265        -0.88392
H         51.05502        39.35348        -0.28138
H         52.30519        41.50774        -0.16116
H         53.52440        43.63027        -0.13980
H         54.80236        45.73780         0.15765
H         56.05112        47.89814         0.36504
H         57.26431        50.02841         0.14536
H         58.54832        52.26301         0.09950
H         59.71849        54.43059        -0.18985
H         60.65023        56.85551         0.86879
H         62.09907        58.74178        -0.60676
H         63.27342        60.90094        -0.87243
H         64.49294        63.03551        -0.95399
H         65.70144        65.17036        -1.29321
H         66.79529        67.22234        -2.07425
H         67.84994        69.29780        -2.91279
H         68.79305        71.33030        -3.93594
H         68.53690        73.70601        -4.59526
