         344
 CSIRO Nanostructure Databank - Neutral Graphene Oxide Data Set
C          1.43727         2.09930         1.89379
C          1.44819         3.49259         2.00673
C          2.53987         1.42314         1.38861
C          2.55862         4.25461         1.57296
C          1.56026         6.36694         2.38530
C          1.62970         7.74475         2.63695
C          2.59366         5.71827         1.71919
C          2.70109         8.48412         2.16484
C          1.28248        11.12900         1.06043
C          1.15362        11.93308        -0.08602
C          2.54131        10.62484         1.36767
C          2.31246        12.38014        -0.70927
C          1.18162        15.22936        -1.83878
C          1.20702        16.59860        -1.62402
C          2.33842        14.46535        -1.62452
C          2.42298        17.21783        -1.27962
C          2.46805        18.64541        -1.12740
C          3.67911         2.15256         0.96048
C          3.66143         3.57749         1.02697
C          4.85525         1.47335         0.53896
C          4.77198         4.34159         0.35921
C          3.74664         6.47530         1.28438
C          3.79225         7.91680         1.43404
C          4.86924         5.78623         0.77420
C          4.91032         8.67159         0.92240
C          3.70522        10.93763         0.63028
C          3.61503        12.05116        -0.26053
C          4.91928        10.13356         0.65642
C          4.80330        12.81874        -0.58750
C          3.57668        15.00569        -1.20395
C          3.61206        16.43764        -1.12285
C          4.79030        14.22241        -0.92991
C          4.85388        17.12147        -0.94809
C          3.64977        19.29160        -0.91807
C          4.88024        18.55261        -0.87467
C          6.07489         2.17288         0.35029
C          6.08626         3.60656         0.39383
C          7.28835         1.47323         0.17279
C          7.29298         4.31024         0.30377
C          6.07880         6.48153         0.57289
C          6.07878         7.92025         0.58240
C          7.30015         5.75591         0.34274
C          7.30337         8.57202         0.24041
C          6.04049        10.76710         0.12633
C          6.03606        12.16467        -0.28175
C          7.28416         9.99919        -0.21406
C          7.26584        12.86465        -0.43258
C          6.02990        14.93528        -0.89017
C          6.06342        16.37846        -0.92579
C          7.27525        14.23882        -0.73195
C          7.30159        17.08286        -0.88016
C          6.10479        19.22551        -0.80284
C          7.31670        18.51187        -0.83323
C          8.51965         2.16036         0.07869
C          8.53011         3.59789         0.16381
C          9.73377         1.45710        -0.09421
C          9.75992         4.29829         0.09323
C          8.52692         6.44497         0.24112
C          8.51308         7.87812         0.16678
C          9.76793         5.73266         0.13842
C          9.77988         8.59730         0.04951
C          8.55244        10.73319         0.13837
C          8.55105        12.20739        -0.08768
C          9.80809         9.97573         0.01392
C          9.82563        12.83574        -0.50926
C          8.54293        14.94862        -0.82320
C          8.54423        16.37788        -0.89096
C          9.77800        14.25707        -0.83304
C          9.76844        17.10277        -0.91505
C          8.56274        19.20988        -0.84602
C          9.76230        18.53604        -0.91329
C         10.96809         2.13813        -0.16641
C         10.98316         3.56959        -0.05446
C         12.19399         1.43640        -0.33193
C         12.22797         4.25547        -0.10430
C         10.99982         6.44605         0.10473
C         11.01977         7.85837         0.12538
C         12.25352         5.71122         0.04479
C         12.26809         8.57855         0.05227
C         11.09386        10.76278         0.12696
C         10.99546        12.12199        -0.52724
C         12.29347         9.92359        -0.25206
C         12.21731        12.75414        -1.15199
C         11.00892        14.96851        -0.94271
C         11.01133        16.39627        -0.93691
C         12.24978        14.24242        -0.89398
C         12.24265        17.11493        -0.95639
C         11.03985        19.34017        -1.02648
C         12.30759        18.52577        -0.91269
C         13.41436         2.12019        -0.39620
C         13.41826         3.54125        -0.29138
C         14.67671         1.42363        -0.49806
C         14.70604         4.30358        -0.46086
C         13.45203         6.36086         0.19906
C         13.54759         7.83981         0.36740
C         14.71144         5.55461         0.39612
C         14.74969         8.34080        -0.57308
C         13.49228        10.52710        -1.00216
C         13.51872        12.03713        -0.84428
C         14.74862         9.81862        -0.58644
C         14.66729        12.70681        -0.59646
C         13.45412        14.89878        -0.81185
C         13.48835        16.34800        -1.03157
C         14.67057        14.19109        -0.28693
C         14.81332        17.08233        -0.93075
C         13.52748        19.19857        -0.74851
C         14.77412        18.53091        -0.65558
C         15.89428         2.07175        -0.38495
C         15.96263         3.49027        -0.24081
C         17.16108         1.25284        -0.29821
C         17.17301         4.14572         0.04345
C         16.00149         6.31291         0.17152
C         16.00834         7.70170        -0.03284
C         17.19060         5.55847         0.28679
C         17.18748         8.46154         0.15258
C         15.81786        10.57021         0.15014
C         15.98206        11.97468        -0.49076
C         17.16720         9.86335         0.13730
C         17.06532        12.77300         0.25872
C         15.99031        14.90560        -0.49655
C         16.02722        16.31767        -0.58370
C         17.16998        14.20495        -0.21671
C         17.22393        17.02927        -0.35053
C         15.97686        19.18348        -0.35514
C         17.21039        18.48393        -0.25665
C         18.43084         2.06714        -0.23921
C         18.43681         3.40859        -0.00771
C         19.67688         1.22562        -0.34873
C         19.74898         4.18579        -0.01255
C         18.42189         6.25640         0.67697
C         18.41977         7.76656         0.58674
C         19.73153         5.48767         0.81140
C         19.69742         8.48882         0.42461
C         18.38798        10.60046         0.24624
C         18.37868        12.02002         0.22168
C         19.64781         9.85738         0.26960
C         19.58993        12.76535         0.17796
C         18.40695        14.89397        -0.14379
C         18.43085        16.31460        -0.17715
C         19.62364        14.15122         0.04198
C         19.68521        17.02859        -0.01525
C         18.41438        19.16197        -0.00400
C         19.65517        18.48711         0.09786
C         20.96833         2.00732        -0.32751
C         20.91012         3.28049         0.50417
C         22.12449         1.44699        -0.75785
C         22.29167         4.08892         0.57726
C         20.96664         6.31829         0.46840
C         20.94866         7.73127         0.38857
C         22.19111         5.61053         0.37403
C         22.18300         8.45528         0.30221
C         20.91949        10.61918        -0.00576
C         20.84460        12.03582         0.50642
C         22.19473         9.89045         0.34503
C         22.10079        12.78410         0.80465
C         20.93536        14.85749        -0.18263
C         20.87754        16.34892         0.02774
C         22.13866        14.22577         0.48118
C         22.17255        17.10048        -0.14026
C         20.85086        19.17822         0.35523
C         22.10749        18.52239         0.36616
C         23.39205         2.15850        -0.69579
C         23.40086         3.47422        -0.24126
C         24.58407         1.55673        -1.20838
C         24.64273         4.27249        -0.52130
C         23.39153         6.33390         0.27070
C         23.41796         7.75293         0.28961
C         24.67111         5.59599         0.20269
C         24.66190         8.48824         0.25689
C         23.38832        10.58996         0.48036
C         23.41114        12.01540         1.01241
C         24.64758         9.90378         0.37613
C         24.63564        12.80073         0.63211
C         23.34853        14.90545         0.45290
C         23.39649        16.34437         0.31595
C         24.59988        14.16922         0.55791
C         24.57867        17.05322         0.54033
C         23.28255        19.17543         0.70950
C         24.54566        18.49619         0.74843
C         25.84717         2.15455        -1.07372
C         25.93045         3.44935        -0.28533
C         27.02099         1.57219        -1.55944
C         27.13426         4.29663        -0.67298
C         25.96238         6.34631         0.12303
C         25.91900         7.82566         0.12547
C         27.13557         5.64780        -0.45084
C         27.10252         8.55174        -0.01851
C         25.88011        10.63611         0.35172
C         25.89138        12.07005         0.53521
C         27.10762         9.96619         0.12692
C         27.09464        12.75716         0.63674
C         25.89324        14.90828         0.28569
C         25.83902        16.37696         0.63584
C         27.02982        14.21301         1.02310
C         27.02615        17.06581         0.84492
C         25.71917        19.16427         1.07278
C         26.99337        18.50078         1.10568
C         28.27006         2.26527        -1.54106
C         28.31486         3.63967        -1.19123
C         29.48074         1.61258        -1.93470
C         29.54270         4.37014        -1.29444
C         28.25580         6.50597        -0.97982
C         28.41101         7.80878        -0.17125
C         29.57474         5.77556        -1.07498
C         29.52884         8.68007        -0.77093
C         28.36806        10.69385         0.13940
C         28.35764        12.10511         0.46719
C         29.57853        10.04464        -0.11791
C         29.55484        12.83360         0.54755
C         28.32574        14.96450         0.86659
C         28.29048        16.34720         0.85972
C         29.56654        14.24269         0.82304
C         29.56123        17.08185         0.89194
C         28.15060        19.19377         1.41882
C         29.48391        18.60067         1.25374
C         30.68228         2.28232        -1.92958
C         30.74686         3.67191        -1.60764
C         31.96816         4.39524        -1.60567
C         30.79730         6.47649        -1.04751
C         30.83660         7.90823        -0.75083
C         31.99431         5.74169        -1.30457
C         32.00137         8.60474        -0.53060
C         30.83587        10.71915        -0.03116
C         30.86944        12.22527         0.11730
C         32.00223        10.00390        -0.24182
C         31.99995        12.79171         0.94606
C         30.78772        14.91513         1.08280
C         30.79979        16.34820         1.21901
C         31.96883        14.09666         1.30642
C         31.91945        17.08200         1.60898
C         30.65123        19.15739         1.92306
C         31.82698        18.45036         1.98240
O         29.72161        18.11628        -0.11505
O         21.17071        12.34141         1.89709
O          8.53117        11.63767         1.29565
O          2.69324         9.83403         2.51845
O         20.61097         2.76820         1.76545
O         18.22382         7.09303         1.88283
O         25.50467         5.70341         1.39710
O         14.46083        14.29492         1.13082
O         14.28344        16.70886        -2.24460
O          2.20263        13.10402        -1.90956
O         17.10370         0.40498         0.86969
H         17.13477         0.98186         1.66150
O         11.04084        20.41393        -0.07299
H         10.99612        20.02507         0.82445
O         22.79159         3.88289         1.91629
H         22.03975         3.39262         2.37867
O         14.72835         5.16048         1.78997
H         14.66680         5.98330         2.32400
O         20.97622        10.79256        -1.46553
H         21.01351         9.90092        -1.87191
O         16.48416        11.77749        -1.83455
H         15.75997        11.40146        -2.37967
O         11.24285        11.03205         1.56732
H         10.38042        11.41489         1.86688
O         26.03719         3.07141         1.09628
H         25.90651         3.88847         1.63681
O         21.20810        14.68122        -1.64760
H         20.34634        14.74168        -2.11517
O         29.25429         9.01481        -2.15640
H         28.90046         8.21469        -2.61281
O         16.66498        12.90362         1.65880
H         15.84092        13.50221         1.66551
O         22.34474        17.21062        -1.60573
H         22.14711        16.30991        -1.96701
O         13.23609        10.22814        -2.42048
H         13.48725         9.28150        -2.56595
O         26.69626        14.26734         2.44234
H         27.31472        13.67952         2.92372
O         13.93315         8.13107         1.71551
H         14.19534         9.08476         1.78609
O         27.83324         6.83655        -2.34850
H         27.71343         5.99132        -2.83146
O         12.02132        12.65928        -2.60395
H         12.28075        11.74649        -2.87716
O         19.57593         0.42099        -1.53399
H         20.14843        -0.36451        -1.42492
O         26.16848        14.81866        -1.13798
H         25.48160        15.33139        -1.61309
O         24.60706         4.63010        -1.93847
H         24.47552         3.80373        -2.45150
O         20.01962         4.56925        -1.38328
H         20.00091         3.75762        -1.93407
O         31.10550        12.71379        -1.25363
H         31.02011        13.69125        -1.23333
O         28.85840         7.43548         1.15484
H         28.12471         6.96976         1.60977
O          7.32220         9.93557        -1.68749
H          6.54552         9.41546        -1.98446
O         19.86054         5.12811         2.19607
H         19.49426         5.87089         2.72700
O         23.57867        11.82179         2.45088
H         22.67071        11.73415         2.82806
O         14.74306         4.80538        -1.84656
H         14.69927         4.03142        -2.44781
O         15.36688        10.64965         1.53227
H         15.83529        11.42879         1.94748
O          4.39436         4.39523        -1.07959
H          4.31301         3.46595        -1.38477
O         14.46090         7.81713        -1.89551
H         14.53336         6.82975        -1.87683
H          0.55304         1.53727         2.22545
H          0.56090         3.98380         2.42623
H          2.54653         0.32560         1.32973
H          0.69035         5.81372         2.75960
H          0.84192         8.24660         3.21249
H          0.40801        10.84418         1.65833
H          0.16835        12.23515        -0.46202
H          0.26461        14.72299        -2.16619
H          0.30187        17.20669        -1.75985
H          1.52634        19.20798        -1.20464
H          4.85499         0.37407         0.50054
H          3.68562        20.38599        -0.82091
H          7.27724         0.37399         0.13014
H          6.12223        20.32437        -0.76118
H          9.71516         0.35962        -0.16613
H          8.55718        20.30941        -0.82365
H         12.17872         0.33857        -0.39840
H         11.04397        19.83192        -2.04035
H         14.66067         0.32578        -0.56573
H         13.50358        20.29285        -0.63315
H         17.22190         0.56104        -1.17990
H         15.97398        20.27432        -0.20599
H         19.67799         0.53437         0.54416
H         18.39907        20.25837         0.09515
H         22.12109         0.45303        -1.23348
H         20.81085        20.25826         0.56737
H         24.50581         0.57336        -1.69824
H         23.25014        20.24065         0.98805
H         26.98140         0.56735        -2.00855
H         25.68815        20.24758         1.26625
H         29.44278         0.54777        -2.20658
H         28.08283        20.24335         1.74551
H         31.61054         1.75479        -2.19304
H         32.90373         3.86650        -1.83939
H         32.96074         6.26395        -1.30039
H         32.97611         8.09650        -0.57319
H         32.97423        10.51346        -0.17645
H         32.89941        12.18712         1.13455
H         32.83830        14.54655         1.80784
H         32.87860        16.57111         1.77119
H         30.56347        20.13638         2.41651
H         32.71228        18.92013         2.43515
