         344
 CSIRO Nanostructure Databank - Neutral Graphene Oxide Data Set
C          1.30164         3.40026         0.20474
C          0.19733         4.07146         0.63960
C          1.25544         6.26317         0.25006
C          0.12898         5.49301         0.58618
C          1.24008         7.72681         0.30940
C          0.09434         8.42655         0.66270
C          1.19960        10.59838         0.53049
C          0.10558         9.84475         0.83479
C          1.18205        12.08024         0.82647
C          0.00687        12.81589         0.22041
C          1.22797        14.93556         0.38686
C          0.03092        14.16166         0.09410
C          1.22748        16.34524         0.44111
C         -0.00218        17.12275         0.24341
C          1.07147        19.21554        -0.72429
C         -0.08221        18.38069        -0.25021
C          1.10049        20.67839        -0.36407
C         -0.09877        21.42065        -0.49178
C          1.08882        23.52727        -0.20869
C         -0.11341        22.79925        -0.39837
C          1.11035        24.96707        -0.12562
C         -0.08215        25.75213        -0.30762
C          1.14279        27.85290        -0.08218
C         -0.05007        27.13217        -0.34384
C          1.21364        29.24788        -0.16524
C          3.74171         3.46726        -0.33111
C          2.41897         4.14319        -0.46732
C          3.68134         6.32782        -0.23597
C          2.46226         5.60576        -0.10470
C          3.66711         7.78572        -0.14824
C          2.45939         8.45211         0.04967
C          3.69827        10.64827         0.16500
C          2.39269         9.95398        -0.13459
C          3.68545        12.06439         0.36521
C          2.47412        12.78858         0.50826
C          3.70986        14.91463         0.52709
C          2.46725        14.20382         0.50815
C          3.69295        16.35490         0.57518
C          2.45872        17.03360         0.64764
C          3.74083        19.30028         0.77010
C          2.49835        18.45644         1.06294
C          3.58318        20.64397         0.04953
C          2.30537        21.35572        -0.07820
C          3.53207        23.51899         0.06088
C          2.31069        22.79783        -0.05979
C          3.55488        24.92063         0.12314
C          2.33487        25.63626         0.09070
C          3.63845        27.79222         0.36251
C          2.31009        27.09006         0.48926
C          3.63655        29.24262         0.26219
C          2.41707        29.92824         0.04089
C          6.18490         3.51645        -0.37988
C          4.92324         4.19112        -0.38635
C          6.14560         6.38277        -0.78393
C          4.88993         5.64006        -0.42140
C          6.14207         7.83581        -0.37059
C          4.91834         8.51443        -0.19652
C          6.15954        10.65396         0.08834
C          4.90803         9.94416         0.03850
C          6.16289        12.06319         0.21303
C          4.92643        12.78318         0.36068
C          6.20450        14.91231         0.52671
C          4.92233        14.18788         0.50691
C          6.19642        16.39525         0.38110
C          4.90380        17.10858         0.41895
C          6.12580        19.19132        -0.02048
C          4.92503        18.49660         0.30556
C          6.03850        20.62185        -0.48842
C          4.75984        21.32953        -0.11795
C          6.00567        23.53144        -0.37986
C          4.83066        22.78058         0.24177
C          6.02734        24.95910         0.13113
C          4.83932        25.63525         0.27472
C          6.10588        27.81719         0.72429
C          4.81316        27.08418         0.44064
C          6.09342        29.27609         0.33036
C          4.85949        29.94250         0.22469
C          8.64567         3.50939        -0.30031
C          7.40810         4.21356        -0.37164
C          8.62279         6.34470        -0.32248
C          7.41368         5.64598        -0.41721
C          8.63204         7.79585        -0.32778
C          7.38130         8.51629        -0.29587
C          8.61663        10.64744        -0.11672
C          7.39898         9.94387        -0.08823
C          8.62695        12.06169         0.01996
C          7.40220        12.77820         0.13842
C          8.64401        14.90144         0.01294
C          7.44281        14.19253         0.18384
C          8.65429        16.34485        -0.17860
C          7.32649        17.02904        -0.39627
C          8.53692        19.24118        -0.49519
C          7.34678        18.52861        -0.21770
C          8.56149        20.66797        -0.46596
C          7.31857        21.39870        -0.27838
C          8.54873        23.52208        -0.26557
C          7.30814        22.77268        -0.21105
C          8.53821        24.89404        -0.13306
C          7.35406        25.59965         0.47843
C          8.53120        27.79404         0.11555
C          7.34975        27.09488         0.26817
C          8.55285        29.25504         0.19127
C          7.31039        29.95125         0.21416
C         11.12043         3.49451        -0.22480
C          9.86458         4.19024        -0.27126
C         11.08994         6.33017        -0.19440
C          9.86192         5.62800        -0.25709
C         11.09008         7.76101        -0.15027
C          9.85981         8.47308        -0.26821
C         11.08767        10.61405         0.12005
C          9.90207         9.95893        -0.51511
C         11.09723        12.06552         0.42358
C          9.84645        12.78276         0.04218
C         11.13098        14.85988        -0.27881
C          9.87706        14.18138        -0.04666
C         11.17355        16.37737        -0.21472
C          9.81049        17.02524        -0.42353
C         11.04362        19.19541        -1.13600
C          9.74471        18.45716        -0.83524
C         11.01234        20.69079        -1.05436
C          9.76741        21.39034        -0.65905
C         11.03232        23.49390        -0.37233
C          9.79770        22.79824        -0.50093
C         11.03560        24.92014        -0.21935
C          9.76441        25.66954        -0.53361
C         10.98862        27.77901         0.04421
C          9.78359        27.10071        -0.06644
C         11.01540        29.22495         0.18276
C          9.77538        29.92730         0.20341
C         13.58924         3.47996        -0.08616
C         12.32897         4.17253        -0.19532
C         13.54311         6.33463        -0.15711
C         12.33441         5.62541        -0.19066
C         13.54075         7.74626         0.01690
C         12.32242         8.44017         0.04776
C         13.59218        10.62354         0.24853
C         12.30510         9.86322         0.52961
C         13.56151        12.04119         0.01954
C         12.34897        12.72713        -0.11707
C         13.56550        14.75958        -0.87070
C         12.29436        14.11097        -0.47059
C         13.57235        16.23935        -1.08421
C         12.21607        16.97544        -1.18985
C         13.54401        19.14996        -0.75017
C         12.31913        18.47749        -0.99698
C         13.56769        20.61807        -0.68259
C         12.32629        21.40379        -0.88393
C         13.48190        23.44687        -0.10460
C         12.29457        22.79908        -0.39323
C         13.44988        24.85390         0.43028
C         12.20926        25.61117         0.03624
C         13.45799        27.73943         0.14668
C         12.24004        27.04978         0.06721
C         13.48281        29.18320         0.18337
C         12.24455        29.88903         0.22871
C         16.04093         3.48033         0.11144
C         14.79768         4.15147        -0.06667
C         16.04610         6.34330         0.13890
C         14.84257         5.62272        -0.41689
C         15.99906         7.74989         0.32318
C         14.79588         8.46171         0.21875
C         16.06969        10.60689         0.28049
C         14.79580         9.90669         0.27771
C         16.05726        12.11178         0.42636
C         14.81701        12.77390        -0.11240
C         16.11952        14.75674        -0.94730
C         14.83441        14.07291        -0.52618
C         16.11462        16.26566        -0.71133
C         14.77150        16.93937        -0.46390
C         16.01485        19.10635        -0.29561
C         14.76000        18.43203        -0.62631
C         15.99665        20.60425        -0.20104
C         14.73043        21.32141        -0.45927
C         15.94810        23.46678        -0.20047
C         14.74886        22.77072        -0.28214
C         15.99479        24.86284         0.36509
C         14.71471        25.62022         0.17001
C         15.94435        27.74113        -0.02422
C         14.71115        27.00174         0.13928
C         15.95728        29.17065         0.19672
C         14.71240        29.86158         0.23052
C         18.49846         3.48784         0.31385
C         17.24360         4.18402         0.21610
C         18.49069         6.33143         0.49719
C         17.24141         5.62860         0.29745
C         18.51275         7.73929         0.61286
C         17.22131         8.47413         0.83820
C         18.53343        10.63374         0.46731
C         17.25832         9.93142         0.43741
C         18.57866        12.03176         0.23246
C         17.34473        12.76941        -0.00407
C         18.65791        14.76088        -0.77131
C         17.36507        14.05368        -0.45879
C         18.58624        16.23281        -0.29640
C         17.29196        16.96353        -0.61321
C         18.50499        19.14683        -0.51840
C         17.31481        18.41652        -0.50487
C         18.53346        20.58444        -0.39855
C         17.25628        21.31931        -0.53244
C         18.55701        23.58513        -0.55731
C         17.22373        22.82418        -0.57469
C         18.47005        24.99343         0.03206
C         17.21905        25.62751        -0.09452
C         18.48736        27.86753         1.44978
C         17.10456        27.01336        -0.37086
C         18.41381        29.19323         0.73199
C         17.16487        29.84480         0.46176
C         19.68059         4.16554         0.42610
C         20.93029         6.31031         0.59238
C         19.71130         5.60091         0.50152
C         20.94274         7.69344         0.64987
C         19.73550         8.44148         0.67036
C         20.95645        10.62906         0.75173
C         19.74289         9.90249         0.66026
C         21.00390        11.99289         0.54466
C         19.83199        12.72814         0.20093
C         21.06841        14.88018        -0.12563
C         19.87586        14.10436        -0.15666
C         21.09412        16.21355        -0.45567
C         19.85148        16.95403        -0.74211
C         21.03044        19.26118        -0.56313
C         19.80703        18.47105        -0.77144
C         20.97939        20.57734        -0.25308
C         19.72182        21.30471        -0.23202
C         20.82210        23.43128         0.41399
C         19.71908        22.74543        -0.06928
C         20.78819        24.81466         0.69788
C         19.65123        25.61574         0.53610
C         20.92972        27.77117         0.80492
C         19.74902        26.97409         1.30626
C         20.85599        29.08392         0.47400
C         19.61409        29.80185         0.41351
O          4.10912        19.77149         2.12251
O         17.68911        27.59177         2.33581
O         10.17558        18.70025        -2.22373
O         11.69963        21.28062        -2.21381
O         17.10909        22.02511        -1.82105
O          6.47652        15.81453         1.68934
O         13.72042        15.38038        -2.24213
O         19.80060        17.65472        -2.01137
O         16.00171        19.83374         1.03978
O          1.94801        18.74801        -1.44715
O         17.06407         8.50663         2.31226
H         16.25418         9.02678         2.50362
O          2.18114        10.15426        -1.58957
H          1.38820         9.63317        -1.83899
O          2.08135         4.10964        -1.93273
H          1.20062         4.53417        -2.02229
O         10.03104        10.13376        -1.98701
H          9.23423         9.73496        -2.39830
O          5.10373        22.72586         1.68349
H          4.71004        21.89529         2.04135
O         11.60537        16.72617         1.12644
H         11.11443        16.17008         1.76761
O          6.97674        16.80666        -1.80000
H          7.71718        17.13874        -2.35215
O         11.67643        16.70062        -2.49248
H         12.22413        17.15171        -3.16668
O         12.27218         9.74966         2.02677
H         13.11057         9.31700         2.29883
O         20.04748        26.58935         2.67270
H         19.17755        26.55033         3.13781
O         16.19502        14.59258        -2.41212
H         15.32548        14.91194        -2.77239
O         11.19196        12.25096         1.89121
H         11.67275        11.46483         2.25383
O         14.55019        16.71953         0.98102
H         15.05335        17.40528         1.47177
O         15.97830        12.32285         1.88534
H         16.84724        12.06837         2.26370
O          1.00785        12.18206         2.28442
H          1.00347        13.13622         2.51210
O          5.91856        20.49090        -1.95510
H          6.73214        20.04904        -2.28076
O          5.75275        23.60656        -1.80918
H          6.56104        23.94562        -2.24785
O         16.17381        24.70039         1.81723
H         15.27032        24.53389         2.18861
O         13.38407        24.70674         1.91855
H         13.16129        25.59153         2.28200
O         15.02682         5.66106        -1.88270
H         14.25823         5.20074        -2.28263
O          9.69150        25.75023        -2.01221
H         10.52867        26.15657        -2.32335
O         18.63106        16.17638         1.15872
H         18.39018        17.05849         1.51240
O          6.20083        27.81826         2.21023
H          6.93342        28.42664         2.44957
O         18.09876        27.58836        -1.10852
H         18.76350        26.90460        -1.33909
O         18.87261        14.74132        -2.20218
H         17.98457        14.75050        -2.63879
O          2.05012        27.06719         1.94967
H          1.18817        26.61691         2.08021
O          7.51568        25.41173         1.93009
H          6.86652        26.02004         2.36434
O         18.86901        23.89671        -1.96002
H         18.51106        23.14103        -2.48723
O          1.67080        18.91584         1.85568
H          3.26535        19.79751         2.63612
O          6.15186         6.41213        -2.26841
H          6.01155         5.49035        -2.57503
H          1.34186         2.30172         0.23410
H         -0.65924         3.51974         1.05399
H         -0.80461         5.97687         0.90087
H         -0.83534         7.89216         0.89770
H         -0.78485        10.32322         1.26811
H         -0.91070        12.25428        -0.01079
H         -0.86291        14.68987        -0.26887
H         -0.94714        16.63027         0.52679
H         -1.07827        18.84962        -0.28663
H         -1.03888        20.89078        -0.70241
H         -1.07176        23.32473        -0.50187
H         -1.03596        25.24658        -0.50848
H         -0.96264        27.69001        -0.60305
H          0.31068        29.81648        -0.43497
H          3.77469         2.36812        -0.29578
H          2.43928        31.02409        -0.05032
H          6.19324         2.41706        -0.34360
H          4.85102        31.02797         0.04020
H          8.63215         2.40953        -0.27881
H          7.31238        31.04620         0.09940
H         11.11303         2.39419        -0.20731
H          9.78679        31.02627         0.25923
H         13.57445         2.38495         0.03030
H         12.26230        30.98761         0.28913
H         16.04785         2.38258         0.19649
H         14.71526        30.95464         0.35809
H         18.49205         2.38897         0.26589
H         17.16469        30.94631         0.41664
H         20.63300         3.61688         0.46769
H         21.87818         5.75290         0.59643
H         21.91189         8.20825         0.68702
H         21.89487        10.10268         0.97104
H         21.97544        12.50191         0.59743
H         22.01891        14.39842         0.14765
H         22.05885        16.73798        -0.50787
H         22.00302        18.76551        -0.68779
H         21.91900        21.12890        -0.11646
H         21.73185        22.88512         0.70106
H         21.66571        25.24371         1.20077
H         21.90280        27.25952         0.76430
H         21.76741        29.61093         0.15533
H         19.61297        30.81413        -0.01725
