         762
 CSIRO Nanostructure Databank - Neutral Graphene Oxide Data Set
C         23.29862        24.52857         0.78013
C         22.14015        25.25605         1.04538
C         23.40885        27.33225         1.15793
C         22.18804        26.63777         1.23625
C         23.49562        28.77227         1.39293
C         22.34027        29.62347         1.43994
C         23.37595        31.76579         0.60370
C         22.29426        30.96177         1.08303
C         23.16745        33.00915        -0.15213
C         21.92536        33.66786        -0.17614
C         22.92455        35.63505        -1.19005
C         21.80167        34.94557        -0.72704
C         22.87503        37.06550        -1.71705
C         21.62253        37.85518        -1.41552
C         22.90246        39.95965        -1.23253
C         21.65730        39.19253        -1.23551
C         22.90985        41.39886        -1.05553
C         21.73603        42.17932        -1.06224
C         22.97195        44.18412        -0.40298
C         21.77799        43.54297        -0.79008
C         22.99878        45.60975        -0.10377
C         22.01784        46.48366        -0.51646
C         23.12197        48.39184         0.54087
C         22.06826        47.86490        -0.15957
C         25.82251        23.03545         0.40176
C         25.77967        24.44851         0.42307
C         24.54510        25.17778         0.67634
C         25.84968        27.27151         0.68529
C         24.59594        26.59219         0.84961
C         25.94350        28.65209         1.04511
C         24.77768        29.32425         1.49772
C         25.82764        31.93373         0.19185
C         24.70776        31.45297         0.92243
C         25.55380        32.84681        -0.97469
C         24.28713        33.64881        -0.74978
C         25.39667        35.71001        -1.58960
C         24.18296        34.97578        -1.19788
C         25.35388        37.08148        -1.62949
C         24.10254        37.77641        -1.14713
C         25.36392        39.96489        -1.29225
C         24.10468        39.27332        -1.32843
C         25.38197        41.34635        -0.92266
C         24.15182        42.05260        -0.77746
C         25.40893        43.96920         0.12555
C         24.17311        43.41461        -0.35319
C         25.33966        45.23329         0.90085
C         24.10938        46.11784         0.73255
C         25.40908        48.16064         1.43313
C         24.23865        47.58184         0.95191
C         25.48792        49.57325         1.76439
C         28.23157        23.03769        -0.00346
C         27.01313        22.35136         0.22393
C         28.19550        24.44587        -0.05938
C         26.99571        25.15446         0.19932
C         28.22644        27.32840         0.01751
C         27.02188        26.59400         0.28406
C         28.24359        28.75705         0.14983
C         27.17336        29.31977         0.86228
C         28.20684        31.73250        -0.54457
C         27.11787        31.43721         0.34749
C         28.06277        33.03988        -1.19958
C         26.79137        33.65749        -1.29270
C         27.85006        35.71564        -2.02820
C         26.67360        35.00636        -1.69277
C         27.81268        37.16806        -2.30103
C         26.52067        37.88952        -2.01681
C         27.82133        39.97093        -1.44102
C         26.57273        39.30220        -1.57659
C         27.85522        41.30927        -0.93901
C         26.62179        41.98972        -0.67333
C         27.88791        43.77194         0.51429
C         26.60916        43.27906        -0.05479
C         27.89197        45.14779         1.18475
C         26.60443        45.88303         1.38198
C         27.98646        48.07455         1.68479
C         26.64137        47.35574         1.68114
C         27.86740        49.51518         1.25217
C         26.66982        50.22962         1.76558
C         30.80090        20.24775        -0.18285
C         29.55938        20.94806        -0.16785
C         30.77204        23.07788         0.10968
C         29.50469        22.31557        -0.06064
C         30.75329        24.48708        -0.37650
C         29.40728        25.19026        -0.46268
C         30.63256        27.36977        -0.46342
C         29.41610        26.65746        -0.35973
C         30.60855        28.78877        -0.25820
C         29.40558        29.54200        -0.24715
C         30.41287        31.52374        -1.63950
C         29.34967        30.92473        -0.70944
C         30.58142        33.05219        -1.46734
C         29.22533        33.73342        -1.60152
C         30.23965        35.79354        -2.62501
C         29.09886        35.06517        -2.01843
C         30.26659        37.26590        -2.46782
C         29.08388        37.92930        -2.19975
C         30.27519        39.99781        -1.61337
C         29.05463        39.31478        -1.77718
C         30.31653        41.27774        -1.00483
C         29.11565        41.94278        -0.68335
C         30.35691        43.77380         0.47379
C         29.16295        43.20453         0.02506
C         30.27046        44.98231         1.25351
C         29.18309        45.84001         1.29989
C         30.52774        48.09335         1.07821
C         29.29491        47.32510         1.53165
C         30.37436        49.51374         0.60958
C         29.06162        50.23657         0.71635
C         30.21061        52.46244         0.51637
C         29.07503        51.70912         0.65082
C         34.23426        18.93427         1.54454
C         34.08110        20.08471         0.81772
C         32.00194        20.88741        -0.03310
C         33.39780        23.11957        -0.12944
C         32.11462        22.35129         0.15963
C         33.28763        24.61504        -0.33871
C         31.98550        25.29355        -0.41145
C         33.08589        27.27953        -1.37695
C         31.87144        26.65100        -0.69812
C         33.02811        28.74839        -1.82623
C         31.76308        29.27630        -2.44222
C         32.83654        31.56166        -2.53231
C         31.57393        30.79283        -2.33799
C         32.79582        32.95289        -2.69472
C         31.61888        33.65774        -2.40814
C         32.75548        35.86568        -3.30481
C         31.49322        35.04302        -2.91088
C         32.71663        37.30240        -2.79185
C         31.53433        37.96370        -2.53986
C         32.71678        40.24985        -2.37927
C         31.47160        39.42876        -2.29159
C         32.83557        41.39010        -1.39538
C         31.63130        41.87972        -0.64209
C         33.03469        44.05925        -0.01606
C         31.70038        43.21216         0.09514
C         33.08494        45.52668         0.26981
C         32.15576        46.15081         1.08852
C         33.00608        48.39042         0.79645
C         31.80624        47.56088         1.00844
C         32.91795        49.84552         0.66033
C         31.59984        50.42005         0.43640
C         32.72265        52.66617         0.38202
C         31.51664        51.88945         0.45889
C         32.66376        54.07742         0.20901
C         36.16778        19.81203         2.78602
C         35.23551        18.82044         2.55516
C         36.19313        20.99391         1.89093
C         35.04372        21.19175         0.90367
C         35.85036        23.54897         0.59478
C         34.76236        22.57124         0.35354
C         35.76974        24.76601        -0.23577
C         34.43083        25.36047        -0.48275
C         35.52565        27.69325        -0.79784
C         34.27302        26.88513        -0.47982
C         35.43735        29.05176        -1.41965
C         34.14234        29.51661        -1.96097
C         35.38304        31.55515        -2.92816
C         34.08266        30.76362        -2.84497
C         35.32047        32.95524        -3.43158
C         34.00153        33.68661        -3.23759
C         35.27895        35.83375        -2.55338
C         34.03416        35.13726        -3.03655
C         35.27755        37.33830        -2.76491
C         33.99703        38.03982        -2.94530
C         35.27082        40.20877        -2.44798
C         33.99467        39.56331        -2.78632
C         35.25419        41.67045        -2.22290
C         33.98907        42.30953        -1.62311
C         35.24532        44.37819        -1.25231
C         34.11654        43.59692        -0.94101
C         35.29803        45.76673        -0.83916
C         34.19948        46.31261        -0.19935
C         35.24459        48.64110        -0.35834
C         34.25181        47.70686         0.27741
C         35.32481        49.93117         0.41522
C         34.05851        50.61689         0.57757
C         35.24554        52.78787         0.24272
C         34.02468        52.04536         0.39988
C         35.09452        54.18272         0.14664
C         33.82450        54.80705         0.08518
C         38.14560        18.43055         5.69326
C         37.25826        18.55090         4.67311
C         38.04789        20.79283         4.05171
C         37.13972        19.74639         3.86639
C         38.02386        21.97373         3.22335
C         37.05783        22.14201         2.24475
C         38.05143        24.29768         1.45681
C         36.95534        23.33742         1.41590
C         38.12393        25.38598         0.60852
C         36.99082        25.63602        -0.30161
C         38.05692        27.87918        -0.93366
C         36.85304        27.01303        -0.86778
C         37.91018        29.27103        -1.41173
C         36.67605        29.69843        -1.88542
C         37.85358        31.31280        -3.21890
C         36.58783        30.88337        -2.68616
C         37.77523        33.31732        -3.94073
C         36.54078        33.85025        -3.49392
C         37.76192        35.94704        -3.10203
C         36.54109        35.19140        -3.09593
C         37.74965        37.35284        -2.78614
C         36.46630        38.05125        -2.66817
C         37.69777        40.22432        -2.13666
C         36.44646        39.49977        -2.47455
C         37.74200        41.70359        -2.16432
C         36.50118        42.42098        -2.08978
C         37.64969        44.60032        -2.13647
C         36.43300        43.79776        -1.84492
C         37.63577        46.12916        -1.96709
C         36.56413        46.55019        -0.96592
C         37.65541        48.95018        -1.18151
C         36.57920        47.98402        -0.56690
C         37.68932        50.28766        -0.31517
C         36.49535        50.59257         0.53976
C         37.74556        52.71990         1.10254
C         36.60113        52.07845         0.30451
C         37.92805        54.15061         1.45458
C         37.00312        55.17341         1.17807
C         37.85709        56.48407         3.02094
C         36.99328        56.35777         1.92429
C         40.23829        17.89492         7.51357
C         40.19324        19.32865         7.08946
C         38.95979        19.57276         6.13724
C         40.16523        21.68101         5.21464
C         38.95213        20.78824         5.22362
C         40.31767        22.67203         4.15146
C         39.05967        23.01635         3.44749
C         40.38862        24.85081         2.27898
C         39.10271        24.15944         2.48282
C         40.37093        25.99382         1.43940
C         39.23954        26.32160         0.66093
C         40.32065        28.40140        -0.17604
C         39.24976        27.50596        -0.15246
C         40.31947        29.55730        -1.03752
C         39.11483        30.00758        -1.63912
C         40.31948        31.77877        -3.00660
C         39.06955        31.07793        -2.59765
C         40.27058        33.12826        -3.71752
C         39.01328        33.92540        -3.75106
C         40.24982        36.02288        -3.24690
C         39.01299        35.29591        -3.35714
C         40.20173        37.39783        -2.96065
C         38.96643        38.05812        -2.74315
C         40.21304        40.29619        -2.50667
C         39.00851        39.48040        -2.31490
C         40.20348        41.65005        -2.26093
C         38.96396        42.37300        -2.10830
C         40.25181        44.62636        -2.14991
C         38.96292        43.84792        -2.27272
C         40.27153        46.09144        -1.79428
C         38.96980        46.80437        -1.58054
C         40.19458        48.72409        -0.70107
C         38.95577        48.10962        -1.15223
C         40.23315        49.99270        -0.15131
C         38.96986        50.45851         0.52005
C         40.27584        52.54652         1.34732
C         39.00036        51.85201         1.13981
C         40.27616        53.74639         2.04849
C         39.04264        54.49089         2.28339
C         39.80047        55.64513         4.39592
C         38.92336        55.59135         3.19188
C         39.32348        55.66554         5.71745
C         42.42573        17.55275         6.51809
C         41.28648        17.07200         7.19724
C         42.54623        18.92049         6.14436
C         41.45436        19.79016         6.38005
C         42.74661        21.78701         5.43889
C         41.46127        21.15546         5.87102
C         42.77287        22.93670         4.51614
C         41.52640        23.35521         3.90311
C         42.79202        25.19277         2.74984
C         41.55434        24.45867         2.96109
C         42.78512        26.41098         2.07040
C         41.50284        26.92557         1.56327
C         42.71211        28.97325         0.49597
C         41.44612        28.21637         0.75680
C         42.73767        29.84471        -0.70955
C         41.54770        30.25256        -1.30120
C         42.76138        32.35107        -2.18907
C         41.40005        31.63325        -1.92297
C         42.78529        33.27506        -3.38065
C         41.54589        33.92654        -3.93069
C         42.73092        36.01948        -3.50089
C         41.51365        35.36615        -3.49246
C         42.75021        37.43855        -3.11113
C         41.46750        38.15779        -2.83215
C         42.71646        40.38156        -2.81736
C         41.42438        39.65203        -3.12092
C         42.74610        41.70193        -2.49637
C         41.49181        42.37880        -2.10465
C         42.78628        44.61715        -1.92521
C         41.50872        43.85221        -1.90155
C         42.79530        45.86434        -1.32089
C         41.52555        46.62681        -1.16993
C         42.38676        48.43790         0.27655
C         41.39484        47.89810        -0.62622
C         42.62787        49.75209         0.50378
C         41.56223        50.71204        -0.00189
C         42.76880        52.31740         1.78532
C         41.54693        51.95974         0.89973
C         42.63477        53.43918         2.71310
C         41.55677        54.25535         2.48018
C         42.07585        55.03436         5.23681
C         41.17956        55.45913         4.23190
C         41.54975        55.07057         6.55158
C         40.21733        55.42733         6.77320
C         44.87750        18.59673         5.25548
C         43.77717        19.43128         5.58254
C         45.14461        21.34566         4.58368
C         43.97157        20.87942         5.43695
C         45.33221        22.87894         4.61999
C         44.00953        23.48934         4.10597
C         45.26943        25.29062         3.01274
C         44.02922        24.64233         3.28280
C         45.27744        26.67952         2.47446
C         43.93605        27.39981         2.26364
C         45.26400        29.05693         0.58066
C         43.97610        28.56078         1.20410
C         45.19937        29.93341        -0.60525
C         44.00451        30.39412        -1.12966
C         45.15961        31.91810        -2.67163
C         43.99120        31.48404        -2.09264
C         45.20402        33.11318        -3.47356
C         43.99445        33.89347        -3.70065
C         45.19667        36.09285        -3.75554
C         43.99610        35.35050        -3.82683
C         45.24159        37.46722        -3.30130
C         43.97795        38.22716        -3.40568
C         45.22916        40.28133        -2.58708
C         43.97869        39.68513        -3.16079
C         45.31001        41.76265        -2.74355
C         43.99639        42.50277        -2.70915
C         45.39765        44.70063        -2.32520
C         44.01997        43.98683        -2.45108
C         45.34752        45.87460        -1.42885
C         44.13594        46.34300        -0.92808
C         45.31949        48.08265         0.41436
C         44.23206        47.30506         0.13305
C         45.20079        49.41788         1.04939
C         43.93484        50.24664         1.03831
C         45.00015        51.76134         2.74921
C         43.92104        51.42027         1.92372
C         44.91845        52.89237         3.63246
C         43.80376        53.92872         3.54403
C         44.41986        54.57108         5.86803
C         43.40442        54.49461         4.92290
C         46.14517        19.10224         5.04878
C         47.72104        21.14548         4.52766
C         46.36678        20.54769         4.98196
C         47.71969        22.44366         3.80166
C         46.60020        23.31727         3.84958
C         47.69280        25.36524         2.86829
C         46.51086        24.66420         3.30245
C         47.74080        26.30046         1.85240
C         46.56288        27.17430         1.78797
C         47.69753        28.51708        -0.10905
C         46.57266        28.34296         0.84335
C         47.69572        29.61242        -0.95317
C         46.50959        30.56879        -1.03562
C         47.69103        31.79268        -2.84285
C         46.40762        31.08126        -2.48637
C         47.69459        33.00287        -3.53853
C         46.43510        33.48989        -3.99894
C         47.67950        35.94814        -3.45437
C         46.49337        35.54436        -4.05800
C         47.61790        37.20657        -2.68861
C         46.40384        38.03304        -2.84722
C         47.76823        40.10047        -2.16734
C         46.45047        39.44321        -2.39258
C         47.73505        41.57650        -1.88772
C         46.64974        42.42499        -2.52547
C         48.10417        44.62274        -2.09331
C         46.72568        43.93041        -2.42934
C         47.97762        45.95570        -1.34210
C         46.61765        46.56349        -1.05480
C         47.73326        48.10090         0.60840
C         46.60383        47.63432        -0.03396
C         47.52259        48.96671         1.81784
C         46.28878        49.78170         1.96307
C         47.30744        51.29674         3.62144
C         46.20393        50.91056         2.77291
C         47.19142        52.37286         4.49129
C         45.94362        53.12643         4.57398
C         45.69212        54.01265         5.65128
C         49.72161        20.32697         3.31887
C         48.78772        20.16904         4.29487
C         49.79422        21.56948         2.61080
C         48.90749        22.59993         2.95891
C         50.08073        24.22755         1.45999
C         49.30400        23.91135         2.53256
C         50.17857        25.64671         1.00098
C         48.86386        26.41047         0.87016
C         50.04116        27.88206        -0.89930
C         48.80621        27.52352        -0.14800
C         49.97796        29.03116        -1.80409
C         48.84011        29.94185        -1.74759
C         50.14788        31.66615        -2.98885
C         48.90241        31.12590        -2.51511
C         50.14734        32.93372        -3.81674
C         48.91108        33.79126        -3.64010
C         50.16167        35.89570        -3.14593
C         48.92004        35.18851        -3.49052
C         50.17553        37.17049        -2.58876
C         48.89946        37.86609        -2.25785
C         50.15928        39.90914        -1.49019
C         48.89840        39.34441        -2.02865
C         50.20730        41.38733        -1.14176
C         48.98271        42.24821        -1.37459
C         50.37353        44.28626        -1.08624
C         49.16474        43.72076        -1.46410
C         50.46438        45.81165        -1.02360
C         49.14073        46.41786        -0.55814
C         50.17062        47.99559         1.06587
C         49.04076        47.50056         0.35084
C         50.03266        49.12571         2.01369
C         48.69523        49.36470         2.64675
C         49.79233        51.14908         4.15494
C         48.52879        50.39621         3.77532
C         49.57882        52.23014         5.08509
C         48.34396        52.78055         5.26813
C         52.07990        20.99917         1.54913
C         50.83580        21.80590         1.56838
C         52.16127        23.60312         0.19566
C         50.90853        23.15988         0.87094
C         52.28492        24.88211        -0.26221
C         51.28035        25.94524         0.03739
C         52.41446        27.60076        -1.48717
C         51.19707        27.13166        -0.86347
C         52.52830        28.86561        -2.06170
C         51.29487        29.57733        -2.39697
C         52.62052        31.57957        -3.12909
C         51.34084        30.98243        -2.82270
C         52.70016        32.92569        -3.46219
C         51.45419        33.69501        -3.70856
C         52.72135        35.74595        -2.97658
C         51.44046        35.18422        -3.42982
C         52.65135        37.00691        -2.18630
C         51.40722        37.82856        -2.15443
C         52.63737        39.80183        -1.14358
C         51.41179        39.11818        -1.64344
C         52.69876        41.28851        -1.03770
C         51.52720        42.07075        -1.05199
C         52.85877        44.11257        -0.62806
C         51.55590        43.48175        -0.91293
C         52.92908        45.57225        -0.18973
C         51.66498        46.38432        -0.24342
C         52.71736        47.95429         1.53123
C         51.52814        47.55353         0.69046
C         52.57422        49.09899         2.48627
C         51.22835        49.74719         2.67542
C         52.25884        51.14268         4.48540
C         51.04725        50.66769         3.83876
C         53.17638        21.37443         0.86428
C         54.66775        23.21006        -0.24783
C         53.27741        22.62528         0.07457
C         54.76778        24.62698        -0.64400
C         53.50970        25.30210        -0.99587
C         54.91354        27.32531        -1.72970
C         53.58814        26.71112        -1.54390
C         54.95659        28.67254        -2.27149
C         53.79755        29.40116        -2.50160
C         55.16192        31.40010        -3.60714
C         53.82863        30.72806        -3.20340
C         55.19049        32.91377        -3.59133
C         53.97083        33.61878        -3.48797
C         55.18406        35.77069        -2.98986
C         53.90381        35.04841        -3.16870
C         55.19414        37.12787        -2.35138
C         53.92873        37.64413        -1.74023
C         55.19490        39.87119        -1.52414
C         53.94360        39.05815        -1.23218
C         55.19825        41.17670        -0.78411
C         53.97335        41.89279        -0.71678
C         55.20292        43.82505         0.19627
C         54.01502        43.25598        -0.32817
C         55.17451        45.12450         0.81166
C         54.00435        45.93614         0.76252
C         54.95910        47.36658         2.51011
C         53.88710        47.03523         1.63385
C         54.75253        48.34193         3.61402
C         53.51987        49.20105         3.64736
C         53.42996        50.46831         4.41253
C         57.08702        23.24858         0.15108
C         55.91045        22.57970         0.21466
C         57.21959        24.58592        -0.39752
C         55.99379        25.26399        -0.81671
C         57.37294        27.22246        -1.60916
C         56.04994        26.58764        -1.40832
C         57.43804        28.27231        -2.67841
C         56.22243        29.13249        -2.88482
C         57.61289        30.84444        -3.90443
C         56.38490        30.53087        -3.38455
C         57.72586        33.15698        -3.98708
C         56.44492        33.69631        -3.57761
C         57.69205        35.82014        -3.08939
C         56.44410        35.03259        -3.18016
C         57.72893        37.00273        -2.17471
C         56.46488        37.68505        -1.79338
C         57.65863        39.72871        -1.04634
C         56.47647        39.09932        -1.37556
C         57.65913        41.04425        -0.46809
C         56.41237        41.74724        -0.33848
C         57.59717        43.60557         0.80051
C         56.40142        43.05405         0.24454
C         57.54595        44.85792         1.43781
C         56.31944        45.57892         1.52637
C         57.34044        47.12053         3.20661
C         56.20405        46.71718         2.39026
C         57.13339        48.15223         4.20349
C         55.92760        48.72459         4.41000
C         59.70147        24.50519        -0.17908
C         58.48060        25.17520        -0.53942
C         59.95500        26.94399        -1.63098
C         58.62010        26.52762        -1.13327
C         60.05970        28.12866        -2.53101
C         58.79315        28.77546        -3.07643
C         60.11093        30.67427        -3.87616
C         58.85654        30.13116        -3.64684
C         60.22197        33.05867        -3.89558
C         58.96480        33.74123        -3.73669
C         60.26843        35.65830        -2.65552
C         59.03242        35.14718        -3.30058
C         60.27496        36.99477        -2.09422
C         59.01395        37.76979        -2.09967
C         60.19249        39.62307        -0.78138
C         58.96473        39.11751        -1.41241
C         60.11316        40.86761        -0.04463
C         58.87289        41.59674         0.04655
C         60.00826        43.34648         1.36718
C         58.83923        42.85364         0.72639
C         59.95802        44.57715         2.14421
C         58.80669        45.53074         1.91456
C         59.71976        46.85352         3.85267
C         58.58074        46.50246         3.05439
C         60.92779        25.00892        -0.51711
C         61.05330        26.20491        -1.29975
C         61.27119        28.95622        -2.56872
C         61.30268        30.10253        -3.30647
C         61.38956        33.59443        -3.38354
C         61.39254        34.84767        -2.70991
C         61.40493        37.62273        -1.58569
C         61.36230        38.89047        -0.95168
C         61.25603        41.40652         0.57664
C         61.20374        42.60428         1.27430
C         60.97431        44.94822         2.99025
C         60.88061        46.12592         3.79626
O         55.18403        37.04917        -3.79838
O         34.27537        42.37340        -3.05295
O         44.61620        44.77409        -3.53526
O         50.65706        50.35718         1.47058
O         57.99201        27.64494        -0.34372
O         46.95732        43.22524        -3.68666
O         38.08494        51.91311         2.28825
O         34.40870        33.15114        -4.57296
O         37.62534        27.04840        -2.10600
O         46.20523        27.55906         3.15933
O         51.34383        26.38784         1.47410
O         43.98354        39.16401        -4.54673
O         32.72889        43.19432         1.11775
O         40.43833        45.62045        -3.18973
O         40.46491        31.86171        -4.45509
O         57.14049        36.74707        -0.85863
O         58.43879        36.04902        -4.31635
O         48.90749        24.93499         3.38498
O         47.87111        41.90099        -0.46320
O         30.48203        35.24211        -3.98459
O         26.96498        37.63012        -3.40256
O         51.89598        47.74256        -0.73921
O         27.37764        30.58671         1.43504
O         36.72920        24.65795        -1.35861
O         37.24896        49.23719        -2.45866
O         59.05619        38.98968        -2.89260
O         57.74027        31.97368        -4.71108
O         26.50117        46.38264         2.75213
O         31.75939        40.33008        -3.45599
O         38.39882        39.65705        -0.98247
O         42.30279        37.71898        -1.72408
O         50.38520        28.74774        -3.18129
O         38.19814        44.24686        -3.45113
O         33.12390        20.08768        -0.19607
O         53.31606        39.20079         0.04874
O         50.01008        40.39592        -0.09926
O         41.07391        28.21876         2.16264
O         50.24097        22.03176         0.23060
O         41.65089        55.58867         2.91655
O         32.58421        40.91627        -0.04570
O         35.52765        28.89054         0.06092
O         37.04923        47.00284         0.36396
O         42.56114        52.87386         0.40616
O         44.64808        42.15815        -3.97245
O         30.96618        28.55720        -3.01806
O         53.32827        25.55024        -2.42994
O         37.34212        51.62093        -0.99550
O         48.30608        26.16070        -0.48037
O         47.96588        48.14605         2.99747
O         28.81075        47.81651         2.84671
O         30.03887        24.61217        -1.65686
O         37.77930        32.00900        -4.43467
O         38.54394        24.33430         3.85068
O         27.85951        43.90571         1.97289
O         53.56585        47.98409         4.46146
O         47.40262        46.97081        -2.24428
O         43.67755        21.73788         6.56069
O         31.41523        45.35648         1.94384
O         54.31341        30.74972        -4.59653
O         48.08536        37.12106        -1.28946
O         53.18196        49.32710         1.19465
O         24.30177        45.26390         1.91635
O         60.26865        31.85610        -4.61348
O         28.03854        49.64493        -0.20092
O         56.62184        28.06427        -3.85809
O         24.92411        30.61726         2.03747
O         47.26730        21.16148         5.92132
O         46.50047        34.49151        -4.98531
O         30.36488        31.22349        -3.05609
O         43.19573        29.69950         1.68292
O         53.32657        45.20030        -1.53281
O         41.50688        42.96922        -0.72570
O         53.24666        36.73858        -0.83963
O         45.52084        39.75854        -1.26445
O         51.55123        34.65525        -4.80710
O         38.21553        20.76392         6.49601
O         46.23649        29.58653         1.55601
O         33.97781        38.95829        -4.09855
O         36.36061        20.68735         0.45809
O         40.58051        22.11166         6.54258
O         34.32136        22.51218        -1.05464
O         31.46212        22.85272         1.38290
O         44.96201        50.42809        -0.02437
O         59.53891        27.79443        -3.87090
O         36.15222        55.08314         0.06755
O         40.75016        32.28674        -0.83748
O         34.09790        47.92398         1.69540
O         53.87194        22.43884        -1.23624
O         30.93494        49.74555        -0.71963
O         43.12680        47.47175         0.96107
O         50.63662        46.26026        -2.38510
H         51.00737        47.17190        -2.34223
O         46.28995        29.89833        -3.32264
H         46.42313        30.16059        -4.25732
O         43.63874        28.00768         3.53434
H         43.01123        28.74975         3.35576
O         55.07109        40.16888        -2.96019
H         55.89902        40.60157        -3.26049
O         45.53750        23.28898         5.97871
H         45.60990        24.26512         6.00425
O         41.25374        39.77124        -4.56740
H         42.13925        39.62449        -4.98386
O         25.29749        31.98816        -2.13584
H         25.18830        32.56878        -2.91836
O         50.07119        32.46305        -5.19968
H         50.41059        33.19373        -5.76471
O         44.84547        21.01078         3.20382
H         44.84344        20.03319         3.11859
O         59.23117        46.37367         0.77446
H         60.05276        46.83464         1.04883
O         37.19250        46.65428        -3.22848
H         37.78069        46.28549        -3.92412
O         42.91797        33.32857        -1.11906
H         42.07537        33.23773        -0.57142
O         35.30358        35.63317        -1.08435
H         36.15714        35.98749        -0.75174
O         33.91402        27.17159         0.89319
H         34.22756        28.08688         1.09049
O         46.76995        31.69481        -0.17388
H         46.64601        31.38185         0.75329
O         41.90744        51.14471        -1.33580
H         42.63366        51.80420        -1.24408
O         34.76373        48.97556        -1.67478
H         35.56963        49.22006        -2.23215
O         24.03386        37.58154         0.30030
H         24.73887        38.11866         0.71836
O         48.66169        44.94717        -3.37981
H         48.28509        45.81066        -3.66122
O         48.25867        49.63667         4.99715
H         47.79399        48.81171         4.71546
O         38.83583        49.51945         1.62817
H         38.22163        49.93148         2.28024
O         44.39109        55.06948         2.83673
H         43.65349        55.70037         2.66546
O         41.72024        33.98763        -5.38215
H         41.50270        33.09276        -5.72866
O         31.04855        33.23539        -0.09351
H         31.07148        34.19455         0.10672
O         23.01805        37.02085        -3.15873
H         22.24974        36.54076        -3.53038
O         33.88919        30.26846        -4.21146
H         33.89706        31.05828        -4.80242
O         39.97937        20.11228         8.27349
H         39.81286        21.04163         7.98272
O         32.74720        36.00189        -4.75359
H         31.81029        35.87676        -5.04764
O         33.23842        26.57994        -2.63212
H         32.44004        26.76141        -3.17663
O         31.76543        29.42731         0.08224
H         31.57692        30.36361         0.30432
H         23.22315        23.44182         0.64225
H         21.17597        24.73334         1.11514
H         21.25882        27.17600         1.46584
H         21.36510        29.14041         1.60514
H         21.28438        31.39413         1.00863
H         21.03816        33.19480         0.26543
H         20.81484        35.42963        -0.72696
H         20.64714        37.34584        -1.45687
H         20.71262        39.73400        -1.08109
H         20.76873        41.71850        -1.30352
H         20.84286        44.11858        -0.82779
H         21.17643        46.13021        -1.12814
H         23.13900        49.46960         0.75252
H         21.24940        48.52153        -0.48412
H         24.90587        22.45488         0.57141
H         24.56814        50.10462         2.04906
H         27.00167        21.25454         0.27616
H         26.73232        51.29007         2.04534
H         30.80081        19.16185        -0.34076
H         28.64142        20.35890        -0.28988
H         30.09810        53.55449         0.47247
H         28.09916        52.21402         0.65630
H         33.53999        18.10006         1.38306
H         31.69735        54.59522         0.16308
H         35.22432        17.91184         3.17095
H         33.78743        55.89683        -0.04129
H         38.28188        17.45835         6.18939
H         36.65645        17.67266         4.40349
H         37.74891        57.33842         3.70299
H         36.24828        57.13326         1.70563
H         39.41729        17.53053         8.14689
H         38.25607        55.82427         5.92386
H         43.25956        16.86130         6.34421
H         41.27604        16.02403         7.52995
H         42.17714        54.77607         7.40432
H         39.83741        55.44316         7.80409
H         44.75909        17.50509         5.29724
H         44.23899        55.09723         6.81704
H         46.99316        18.40664         5.00563
H         46.45782        54.16961         6.42216
H         50.46257        19.53828         3.13363
H         48.80130        19.26978         4.92463
H         50.43523        52.66892         5.61524
H         48.24853        53.62944         5.95819
H         52.10443        20.05588         2.11435
H         52.20758        52.04710         5.10712
H         54.04707        20.70310         0.84885
H         54.30646        50.83169         4.96670
H         57.98960        22.73257         0.50373
H         55.88835        21.54720         0.58925
H         57.97708        48.46787         4.83049
H         55.80131        49.46724         5.20922
H         59.66041        23.55765         0.37376
H         59.65810        47.68939         4.56183
H         61.83990        24.46729        -0.23260
H         62.05253        26.50785        -1.64292
H         62.16006        28.63656        -2.00629
H         62.23431        30.68033        -3.38611
H         62.33105        33.03888        -3.48306
H         62.33834        35.19202        -2.26917
H         62.37633        37.10984        -1.62410
H         62.30867        39.27121        -0.54363
H         62.21488        40.87502         0.51999
H         62.12391        42.98004         1.74036
H         61.86560        44.31760         3.11151
H         61.73140        46.39950         4.43488
