         344
 CSIRO Nanostructure Databank - Neutral Graphene Oxide Data Set
C          1.27626         3.55263        -0.56126
C          0.06355         3.92325        -0.02439
C          1.16149         5.75992         1.11328
C          0.01398         5.01513         0.86766
C          1.14077         8.01147         1.59433
C         -0.00996         8.77337         1.70951
C          1.21537        10.73400         0.98739
C          0.01231        10.12531         1.32829
C          1.24024        12.15162         0.62373
C          0.04062        12.84257         0.27110
C          1.24908        14.95600         0.06762
C          0.04344        14.19381         0.02122
C          1.24553        16.37811        -0.01475
C          0.02395        17.13090        -0.19821
C          1.18246        19.22370         0.48206
C         -0.00424        18.47672        -0.06819
C          1.20984        20.69686         0.13152
C          0.00988        21.40760         0.04994
C          1.20768        23.50448        -0.22138
C          0.00648        22.78259        -0.17973
C          1.14151        24.96706        -0.64442
C         -0.01690        25.80718        -0.13910
C          1.24753        27.82000        -0.78195
C          0.03541        27.14585        -0.30936
C          1.28119        29.28220        -0.92355
C          3.70933         3.73390        -0.60314
C          2.46754         4.28231        -0.25822
C          3.60481         6.32683         0.66874
C          2.41609         5.50437         0.49991
C          3.56690         7.73511         0.94005
C          2.39070         8.53388         1.13313
C          3.68093        10.65463         0.90191
C          2.44169         9.97291         1.00050
C          3.69987        12.15857         1.07124
C          2.44674        12.84658         0.60053
C          3.72222        14.91931         0.21284
C          2.48043        14.24278         0.29804
C          3.74350        16.36365        -0.23251
C          2.47279        17.11581         0.06419
C          3.70308        19.26555         0.21282
C          2.47943        18.50368         0.18563
C          3.69710        20.64855         0.14746
C          2.44360        21.39490         0.05409
C          3.72844        23.59274         0.09863
C          2.43285        22.81047        -0.07632
C          3.66580        24.87718        -0.76267
C          2.44470        25.71874        -0.35680
C          3.71096        27.84382        -1.19103
C          2.40880        27.11220        -0.92440
C          3.68569        29.14540        -0.37482
C          2.44020        29.93753        -0.71999
C          6.10810         3.63796        -0.29233
C          4.90120         4.35064        -0.17487
C          6.12524         6.32388         0.59397
C          4.87598         5.69060         0.37969
C          6.16219         7.71046         1.11103
C          4.85751         8.46870         1.10993
C          6.13589        10.63446         0.76054
C          4.90314         9.94845         0.94811
C          6.12431        12.05088         0.48871
C          4.95750        12.79501         0.54367
C          6.18069        14.92061         0.11505
C          4.94484        14.21246         0.27339
C          6.18457        16.37110         0.14120
C          4.99475        17.07717         0.18486
C          6.23867        19.22697         0.06027
C          4.99072        18.53414         0.55330
C          6.22793        20.61646        -0.09459
C          5.00804        21.39967         0.33259
C          6.11962        23.48002        -0.60826
C          4.98039        22.80808        -0.20955
C          6.15631        24.91263        -0.78951
C          4.96243        25.65623        -0.73472
C          6.20038        27.77470        -0.81713
C          4.95604        27.05176        -0.87375
C          6.17793        29.23772        -0.64471
C          4.97215        29.90013        -0.50320
C          8.54811         3.51493        -0.04897
C          7.34137         4.24690        -0.00416
C          8.60565         6.33042         0.33745
C          7.34737         5.65171         0.32488
C          8.67228         7.75896         0.53081
C          7.49849         8.46829         1.17372
C          8.59521        10.60365         0.58823
C          7.41167         9.92915         0.74957
C          8.60497        12.10381         0.72948
C          7.40517        12.71300         0.01865
C          8.63311        14.90997         0.13674
C          7.40231        14.22173         0.13447
C          8.65299        16.34486         0.01404
C          7.45270        17.06447         0.06761
C          8.65899        19.18796        -0.34661
C          7.44187        18.49697        -0.09795
C          8.64919        20.60104        -0.50497
C          7.41301        21.29188        -0.44973
C          8.69437        23.46100        -0.89502
C          7.37443        22.71465        -0.81660
C          8.69922        24.92876        -0.82511
C          7.41774        25.61888        -1.26582
C          8.66781        27.82837        -0.95256
C          7.39527        27.09432        -0.94281
C          8.65413        29.27352        -0.63317
C          7.41908        29.93824        -0.57293
C         11.00882         3.44687         0.10696
C          9.79231         4.16357         0.08451
C         11.05283         6.29059         0.02560
C          9.80372         5.60608         0.16267
C         11.06387         7.74582        -0.05744
C          9.85220         8.44414         0.34195
C         11.07768        10.65712         0.13976
C          9.92514         9.89888         0.75070
C         11.10621        12.03371         0.15454
C          9.89425        12.80163         0.35161
C         11.16533        14.94552         0.31072
C          9.87579        14.17404         0.19991
C         11.09842        16.32525        -0.28810
C          9.90387        17.03285        -0.26469
C         11.10254        19.19206        -0.51665
C          9.89794        18.46963        -0.43850
C         11.12994        20.61430        -0.42556
C          9.89784        21.32674        -0.53229
C         11.13750        23.44348        -0.35520
C          9.92870        22.73311        -0.57370
C         11.12696        24.87601        -0.32393
C          9.88271        25.58401        -0.58613
C         11.13574        27.75951        -0.21444
C          9.95201        27.05563        -0.74203
C         11.10135        29.21319        -0.18425
C          9.87445        29.91987        -0.40841
C         13.47828         3.41450         0.16167
C         12.25808         4.11701         0.13064
C         13.48473         6.22634        -0.40256
C         12.24186         5.55966        -0.00504
C         13.47247         7.73011        -0.69028
C         12.21229         8.43898        -0.40457
C         13.56019        10.53953        -0.24458
C         12.18479         9.93969        -0.60330
C         13.56334        12.04468        -0.35380
C         12.34839        12.75983        -0.15853
C         13.60120        14.85335        -0.29408
C         12.37008        14.15741        -0.14028
C         13.62723        16.27583        -0.40451
C         12.34904        16.96690        -0.66391
C         13.62730        19.21119        -0.46350
C         12.37297        18.50612        -0.73195
C         13.61334        20.57760        -0.23725
C         12.36384        21.31213        -0.28472
C         13.59272        23.45320         0.01430
C         12.36637        22.73050        -0.19310
C         13.56457        24.87830         0.11426
C         12.32200        25.58343        -0.06194
C         13.48240        27.72431         0.55985
C         12.27700        27.03000         0.07697
C         13.46417        29.24728         0.56455
C         12.26801        29.92004         0.07458
C         16.03861         3.42553         0.23015
C         14.74813         4.10460         0.33511
C         16.01993         6.26858        -0.40326
C         14.76631         5.63224         0.02683
C         15.99518         7.70050        -0.71834
C         14.76944         8.41990        -0.68689
C         16.02237        10.61777        -0.83738
C         14.71778         9.88437        -1.02253
C         16.04342        11.97814        -0.61558
C         14.78940        12.71065        -0.43883
C         16.05576        14.84385        -0.32289
C         14.82264        14.13289        -0.38156
C         16.03750        16.24229        -0.22307
C         14.83433        16.97349        -0.37245
C         16.12452        19.14534        -0.09773
C         14.91583        18.45717        -0.70410
C         16.07456        20.59627         0.07255
C         14.85788        21.30668        -0.02385
C         16.05856        23.44721         0.30241
C         14.82676        22.73182         0.11608
C         16.04011        24.89803         0.43501
C         14.79150        25.60136         0.35190
C         15.97279        27.74632         0.70127
C         14.77846        27.01401         0.51554
C         15.99250        29.18838         0.74012
C         14.75855        30.02777         0.51339
C         18.48979         3.44474         0.07214
C         17.20845         4.12544         0.01221
C         18.45106         6.13876        -0.82041
C         17.19291         5.53454        -0.35321
C         18.47262         7.66631        -1.06625
C         17.21473         8.39192        -0.88128
C         18.50253        10.54037        -0.62159
C         17.26389         9.86378        -1.22817
C         18.54867        12.01919        -1.04971
C         17.28551        12.73025        -0.60993
C         18.56853        14.82820        -0.45804
C         17.30904        14.10353        -0.42095
C         18.52517        16.30849        -0.41550
C         17.29425        16.92654         0.23174
C         18.51528        19.11189         0.66702
C         17.26393        18.43674         0.16427
C         18.51092        20.60477         0.51581
C         17.28837        21.31096         0.34665
C         18.59375        23.46164         0.39697
C         17.26429        22.73916         0.39568
C         18.50514        24.92212         0.79292
C         17.23328        25.60660         0.70571
C         18.41013        27.74737         1.09367
C         17.21632        27.03895         0.84987
C         18.42362        29.17064         1.04469
C         17.18307        29.86215         0.87342
C         19.67616         4.09009        -0.12694
C         20.90815         6.17341        -0.70271
C         19.72543         5.46951        -0.53192
C         20.92897         7.57692        -0.90457
C         19.77699         8.35586        -0.96168
C         20.96899        10.53829        -0.79728
C         19.80573         9.80299        -0.87406
C         20.97693        11.95828        -0.60507
C         19.82684        12.71425        -0.62968
C         21.02371        14.92498        -0.40631
C         19.79558        14.16469        -0.52310
C         21.05152        16.27620        -0.27926
C         19.82298        17.08271        -0.33142
C         20.95682        19.21475         0.29359
C         19.81025        18.47510         0.19180
C         20.93127        20.57689         0.72644
C         19.73561        21.27725         0.78690
C         20.92356        23.48221         1.30915
C         19.62683        22.71729         1.24679
C         20.91297        24.82934         1.25459
C         19.67466        25.57949         1.10818
C         20.90877        27.80756         1.23117
C         19.65817        27.02974         1.53714
C         20.87300        29.16428         1.08131
C         19.64321        29.87284         1.07677
O         12.37178        17.67118        -1.95701
O          1.06959         6.72271         2.12471
O         13.43195         6.70513        -1.78380
O         18.38695         6.69438        -2.16965
O         14.73453         5.15503         1.39025
O          9.55256        27.49909        -2.08661
O         13.27616        28.49083         1.80820
O          5.45461         7.93512         2.38336
O         19.05101        16.96428        -1.60076
O          8.01472        22.95640        -2.12388
O         14.86004        30.69077        -0.76204
H         15.06303        30.02165        -1.44734
O          8.45684        12.33698         2.16386
H          9.09589        11.73307         2.60975
O          5.16824        21.52271         1.79842
H          4.61465        22.29866         2.07504
O         14.46529         9.93046        -2.48926
H         14.43091         9.00461        -2.81872
O          7.37159        25.51958        -2.72839
H          7.51243        24.56280        -2.94101
O         17.36054         9.87368        -2.67736
H         16.45043         9.96850        -3.03791
O          3.55536        28.69445         1.02577
H          3.54212        29.49071         1.59797
O         15.10861        18.50574        -2.15615
H         14.27380        18.16327        -2.55622
O         13.81961        10.20688         1.14240
H         13.07807        10.55215         1.68444
O          3.78517        28.20710        -2.59088
H          3.97680        27.39465        -3.10481
O          5.06300        18.60535         2.02205
H          5.11739        19.56733         2.24871
O         10.18142         9.93094         2.20717
H          9.46593         9.37363         2.61799
O          3.82446        16.29470        -1.71554
H          3.02519        15.81451        -2.02158
O         11.87455        10.18363        -2.00249
H         12.72468        10.20020        -2.50785
O         18.55600        12.08384        -2.50293
H         18.65456        13.02518        -2.75787
O         18.53340        18.91216         2.16577
H         17.87003        19.53206         2.54103
O          3.86036        23.87326         1.52484
H          3.19851        24.57646         1.75702
O         11.36535        15.16695         1.75872
H         11.24576        14.30300         2.20801
O          0.95857        24.93242        -2.10262
H          0.17041        24.38022        -2.29054
O          3.55291        24.44627        -2.14064
H          2.60841        24.50617        -2.42788
O         18.29701        10.49116         0.81254
H         19.06111        10.92739         1.24482
O          1.03244        19.19833         1.95159
H          1.12769        18.26402         2.23572
O         17.38400        16.56200         1.64972
H         17.90048        17.27241         2.11239
O          3.73227        12.36934         2.53594
H          4.58583        12.01150         2.86201
O          7.87303         8.52075         2.59434
H          7.02051         8.50544         3.09846
O         19.08332        23.41657        -0.97461
H         18.41560        23.84526        -1.54930
O         19.58121        26.97531         3.02247
H         18.76845        26.47333         3.24770
O          7.56352        12.39954        -1.39511
H          6.84161        12.84383        -1.88669
O         19.10025        22.66015         2.60676
H         19.78022        22.24064         3.17414
O          2.47836        25.98018         1.08459
H          2.89741        26.86774         1.22464
H          1.35972         2.65408        -1.18844
H         -0.84580         3.34517        -0.23735
H         -0.91442         5.26460         1.39681
H         -0.92476         8.31746         2.10806
H         -0.91739        10.70639         1.37746
H         -0.91095        12.29654         0.21755
H         -0.90967        14.69085        -0.20352
H         -0.89074        16.60183        -0.50107
H         -0.95048        19.00851        -0.23873
H         -0.95349        20.89212         0.15574
H         -0.95363        23.30594        -0.29664
H         -0.93673        25.32712         0.22680
H         -0.82788        27.77323        -0.03966
H          0.34386        29.82424        -1.12061
H          3.75534         2.76536        -1.12136
H          2.48934        31.03642        -0.76137
H          6.08199         2.59050        -0.62581
H          4.96375        30.99655        -0.39819
H          8.51277         2.42895        -0.21860
H          7.40326        31.02057        -0.37446
H         10.98577         2.34742         0.12488
H          9.87901        31.01086        -0.26475
H         13.47876         2.32044         0.05234
H         12.30376        31.00669        -0.08865
H         16.07130         2.33070         0.33792
H         14.71786        30.84136         1.28343
H         18.48732         2.38032         0.34908
H         17.18895        30.96168         0.84126
H         20.62572         3.54895        -0.00130
H         21.86682         5.65148        -0.56657
H         21.91233         8.06812        -0.90111
H         21.94622        10.03995        -0.87263
H         21.95538        12.43378        -0.44600
H         21.97548        14.37693        -0.37125
H         22.01216        16.77674        -0.09083
H         21.92915        18.78098         0.01924
H         21.89053        21.08265         0.89956
H         21.86270        22.95414         1.53047
H         21.85390        25.37946         1.39391
H         21.88029        27.29517         1.24608
H         21.80963        29.72534         0.94787
H         19.64056        30.96936         1.00450
