         272
 CSIRO Nanostructure Databank - Neutral Graphene Oxide Data Set
C        -11.28190         0.55568         0.10625
C        -10.08699         1.38463         0.06184
C         -8.80909         0.64062        -0.13501
C         -7.51997         1.38584        -0.08275
C         -6.22541         0.62041         0.21417
C         -5.00078         1.36360        -0.29315
C         -3.81995         0.69401        -0.46689
C         -2.63673         1.43784        -1.02076
C         -1.19240         0.54229         0.75263
C          0.02492         1.42599         0.69042
C          1.33903         0.72138         0.47526
C          2.58543         1.42799         0.07297
C          3.69873         0.71938        -0.59191
C          4.99065         1.48209        -0.83434
C          6.29570         0.72954        -1.05763
C          7.60073         1.44686        -0.94388
C          8.96537         0.72533        -0.95680
C          9.90696         1.43270         0.01881
C         10.80208         0.66913         0.86339
C        -10.11062         2.75394         0.11831
C         -8.87450         3.56670         0.29318
C         -7.56420         2.83785         0.29221
C         -6.28392         3.59827         0.14307
C         -5.04050         2.84818        -0.21196
C         -3.83780         3.65526        -0.57434
C         -2.55124         2.91600        -0.65066
C         -1.43480         3.61480         0.13823
C         -0.08791         2.88090         0.11878
C          0.93592         3.84422         0.68597
C          2.81421         2.70734         0.45956
C          3.91511         3.52888         0.06046
C          5.03082         2.91202        -0.45299
C          6.32908         3.60925        -0.30020
C          7.60933         2.88133        -0.46294
C          8.91183         3.66831        -0.61216
C          9.94353         2.79413         0.07775
C         -8.82032         5.02841         0.13524
C         -7.61449         5.76983         0.04576
C         -6.31841         5.07333        -0.03089
C         -5.12285         5.75541        -0.09432
C         -3.83307         5.09136        -0.17262
C         -2.64495         5.77710        -0.18462
C         -1.34005         5.04758        -0.49746
C         -0.08730         5.85570        -0.15897
C          1.10105         5.12771         0.24936
C          2.49173         5.66788        -0.14175
C          3.80547         5.00216         0.44366
C          4.97536         5.77973        -0.15938
C          6.28771         5.10030        -0.41122
C          7.54698         5.87853        -0.24877
C          8.82506         5.07983         0.04520
C         -7.62240         7.17845         0.00355
C         -6.36909         7.92208        -0.39124
C         -5.13420         7.22326         0.12617
C         -3.85225         7.97052         0.29845
C         -2.63012         7.25519        -0.18958
C         -1.33632         7.99783        -0.37592
C         -0.07352         7.22546        -0.27844
C          1.20900         7.97557        -0.20444
C          2.50059         7.21915        -0.06172
C          3.73201         7.95264         0.41537
C          5.02428         7.24825         0.14580
C          6.21015         8.00319        -0.44184
C          7.50242         7.23307        -0.18109
C         -6.29421         9.42329        -0.21785
C         -5.14214        10.10474        -0.07136
C         -3.83330         9.49821         0.41202
C         -2.52832        10.14520        -0.01585
C         -1.32010         9.46533        -0.10428
C         -0.06430        10.13438        -0.03755
C          1.18450         9.45252         0.02459
C          2.39200        10.12956         0.12749
C          3.67736         9.47515         0.58949
C          4.99864        10.12085         0.20036
C          6.14616         9.46727        -0.05588
C        -11.25250        -0.81015         0.11927
C        -10.02930        -1.59888         0.10128
C         -8.73796        -0.82775         0.27755
C         -7.59841        -1.55397        -0.46030
C         -6.27578        -0.76646        -0.42402
C         -4.97534        -1.49144        -0.59088
C         -3.71648        -0.75934        -0.29351
C         -2.53149        -1.42309        -0.06438
C         -1.27361        -0.73743         0.23707
C          0.00334        -1.41509        -0.16375
C          1.29022        -0.69069        -0.00786
C          2.55884        -1.45770         0.01258
C          3.86465        -0.70565        -0.11518
C          4.95497        -1.48045        -0.82713
C          6.26819        -0.78615        -1.10679
C          7.51965        -1.56996        -0.88009
C          8.91345        -0.88901        -0.87137
C          9.72729        -1.47227         0.28759
C         10.68940        -0.67153         1.01685
C        -10.01153        -2.96217         0.04957
C         -8.76223        -3.80312        -0.19620
C         -7.45143        -3.00999         0.06322
C         -6.26420        -3.74271        -0.55091
C         -4.97223        -2.99778        -0.66002
C         -3.74611        -3.67687        -0.04450
C         -2.44452        -2.92421        -0.38702
C         -1.26075        -3.47806         0.45731
C          0.06662        -2.94422        -0.11737
C          1.28903        -3.43222         0.84286
C          2.54950        -2.77932         0.26322
C          3.84140        -3.52014         0.36220
C          4.94104        -2.94666        -0.53221
C          6.21915        -3.72169        -0.57202
C          7.48046        -2.92423        -0.66198
C          8.74587        -3.69891        -0.28463
C          9.64752        -2.80456         0.52954
C         -8.71283        -5.15546         0.54787
C         -7.42874        -5.93966         0.23157
C         -6.24519        -5.25184        -0.37348
C         -4.92400        -5.97733        -0.39791
C         -3.63476        -5.18485        -0.33369
C         -2.39325        -5.85574         0.18970
C         -1.25565        -4.99783         0.70843
C          0.06645        -5.66692         0.99955
C          1.33957        -4.94823         0.75974
C          2.41876        -5.66533         0.35544
C          3.73951        -5.01370        -0.04036
C          4.95596        -5.77346         0.54079
C          6.29772        -5.05116         0.19306
C          7.44475        -5.92013        -0.25430
C          8.37001        -4.98189         0.47957
C         -7.35832        -7.27150         0.46235
C         -6.24342        -8.15326        -0.09410
C         -4.87631        -7.45685        -0.08728
C         -3.63070        -8.11455         0.43759
C         -2.40459        -7.27427         0.67942
C         -1.23114        -7.78740         1.14215
C          0.09318        -7.16214         1.00026
C          1.21865        -7.94379         0.37231
C          2.24572        -7.03284        -0.30284
C          3.59622        -7.72611        -0.57908
C          4.90334        -7.22983         0.01021
C          6.13436        -7.99526        -0.37150
C          7.42998        -7.26392        -0.37523
C         -6.18264        -9.53148         0.51693
C         -5.06403       -10.17063         0.87488
C         -3.69413        -9.54885         1.04092
C         -2.58689       -10.31552         0.30973
C         -1.27407        -9.93904         0.52410
C         -0.09718       -10.13728        -0.24969
C          1.09759        -9.33716        -0.22557
C          2.21601        -9.84792        -0.88001
C          3.52582        -9.17269        -0.98131
C          4.79060        -9.95026        -1.09012
C          5.98955        -9.34051        -0.99225
O          3.72700        -5.12016        -1.43142
O         -3.93876        -8.13410        -0.99032
O         -2.60105        -5.63238        -1.24603
O          7.05270         3.07107         0.88016
O          5.51844        -8.10226         1.00400
O          1.14981        -7.78685         1.80759
O         -4.56927         7.44435         1.46640
O          5.37876         5.46564        -1.51930
O         -1.15771         4.91217        -1.88195
O          1.09994        -2.96077         2.11664
O         -0.83067        -5.23767         2.07710
O         -1.90659         0.97102        -1.86744
O          5.35045        -1.20379        -2.18175
O         -1.09985        -9.08777         1.64676
O          4.04832         1.12971        -1.91929
O         -3.12125         3.53993        -1.84768
O          1.97483         3.28911         1.42433
O         -8.18071         3.10875         1.58018
O          4.55667         7.44522         1.51471
O          7.19740        -4.67130         1.34752
O         -8.11333         1.04154        -1.36455
O          9.50294         1.05391        -2.27070
O         -5.64500        -0.82669        -1.72779
O          5.29675        -3.71503        -1.70293
O          2.10554         7.74381        -1.37402
O         -2.21319         7.72856        -1.52661
O          0.64535        -0.84279        -1.34559
O         -5.34690         3.19085         1.21829
O         -5.72697        -5.84253        -1.61683
O         -5.69097        -3.41592        -1.84703
O          0.87589         1.07022         1.82721
O          3.63953        -8.06751        -1.98662
O         -2.20959         1.07334         1.50828
H         -2.87392         0.37812         1.70817
O         -8.82043        -4.16000        -1.59139
H         -8.65022        -3.33078        -2.10629
O         -3.82642         9.82991         1.84014
H         -4.28710         9.08530         2.29865
O         -1.43023        -2.85401         1.74335
H         -0.56303        -2.98453         2.24892
O         -6.60959        -8.38739        -1.47782
H         -6.39028        -7.55812        -1.97141
O          9.44548        -4.10555        -1.47823
H          9.65662        -3.27787        -1.97725
O          4.36532        -0.54802         1.25194
H          4.32805        -1.43359         1.69894
O         -8.01896        -1.63443        -1.83545
H         -7.20005        -1.52732        -2.38421
O         -2.27320        -3.04966        -1.79348
H         -1.33072        -3.24492        -2.01384
O          9.23972         3.85427        -1.99950
H          9.49776         2.97126        -2.36168
O         -8.47413        -0.79842         1.70750
H         -9.24910        -0.39717         2.15381
O          6.96645         1.29747        -2.25011
H          8.74178         0.97234        -2.89855
O          6.01056         8.02969        -1.88249
H          5.86278         7.09702        -2.18001
O         -8.85448        -4.93528         1.95003
H         -8.64147        -5.76660         2.41995
O          9.97554         5.81819        -0.34307
H         10.10882         5.64545        -1.30149
O         -6.26928         7.71030        -1.84747
H         -7.03321         8.15368        -2.27293
O         -3.50802        -9.49528         2.46077
H         -2.54842        -9.36954         2.65081
O          4.28616        -3.34109         1.72243
H          3.55200        -3.60215         2.32399
O         -3.99733        -3.56928         1.37729
H         -3.14942        -3.36185         1.84912
O          9.56112        -1.39197        -2.06728
H         10.06821        -0.64010        -2.46209
O         -1.85765         3.79664         1.49614
H         -1.98770         2.91698         1.91963
O          1.64934        -6.71973        -1.57456
H          2.30604        -6.13644        -2.04047
O          4.79483        -5.83762         1.95523
H          5.35577        -6.58091         2.27535
O          3.58237         9.72365         2.03375
H          4.13006         9.02440         2.46581
O          3.87442         5.10511         1.86575
H          3.21788         4.47569         2.24415
O          0.31933        -3.44411        -1.42096
H          0.73938        -2.70959        -1.93553
O          2.57139         5.29856        -1.52614
H          2.05392         5.95617        -2.04863
O         -7.11284        -3.01890         1.45614
H         -7.74398        -2.44160         1.94748
O         -6.07716         0.48231         1.64105
H         -5.98965         1.39392         2.00940
O          0.27747         2.72190        -1.26724
H         -0.13481         3.47458        -1.78916
H         11.34907        -1.19941         1.72142
H         11.54416         1.23037         1.44955
H         10.67456         3.27421         0.74807
H          8.87007         4.93741         1.15915
H          8.44157         7.79007        -0.03536
H          7.06786        10.05465        -0.19648
H          5.04205        11.21086         0.35929
H          2.36946        11.23086         0.17446
H         -0.06358        11.23035         0.07476
H         -2.49453        11.24136         0.10052
H         -5.18154        11.20606        -0.07069
H         -7.21817         9.98741        -0.42983
H         -8.58051         7.71739         0.07380
H         -9.77357         5.57786         0.08965
H        -11.07800         3.27646         0.18435
H        -12.25500         1.06900         0.13483
H        -12.20693        -1.35921         0.12950
H        -10.97414        -3.49619        -0.02644
H         -9.58210        -5.78026         0.18545
H         -8.24187        -7.79038         0.87090
H         -7.13263       -10.08940         0.51203
H         -5.14029       -11.20947         1.23371
H         -2.85181       -10.91134        -0.57621
H         -0.11097       -10.95783        -0.98510
H          2.15848       -10.87855        -1.26830
H          4.72268       -10.99700        -1.42345
H          6.91334        -9.89865        -1.20743
H          8.36724        -7.84075        -0.40982
H          9.22157        -5.42607         1.04570
H         10.28651        -3.25904         1.30357
