         429
 CSIRO Nanostructure Databank - Neutral Graphene Oxide Data Set
C          1.21496         3.46772         1.04894
C          0.36900         4.28346         1.76986
C          1.26993         6.35402         0.73062
C          0.40860         5.68099         1.69516
C          1.43380         7.81604         0.67767
C          0.47586         8.67397         1.31816
C          1.04700        10.46699        -0.29616
C          0.31439         9.96246         0.92198
C          1.06635        11.99645        -0.37045
C         -0.09670        12.75774         0.16553
C          1.21272        14.90385         0.36897
C         -0.04962        14.07821         0.39183
C          1.11343        16.25371        -0.36328
C         -0.08695        17.06185         0.03953
C          1.18114        19.16219        -0.01105
C         -0.04365        18.40777         0.14412
C          1.17643        20.58508         0.03284
C         -0.03545        21.33397         0.15540
C          1.16897        23.45653         0.06219
C         -0.03784        22.70714         0.16946
C          1.17200        24.89270         0.04524
C         -0.03641        25.64724         0.14804
C          1.16153        27.77213        -0.05961
C         -0.03640        27.02133         0.11296
C          1.14871        29.20162        -0.06987
C         -0.04658        29.94776         0.17930
C          1.12544        32.07246        -0.17834
C         -0.05579        31.31428         0.12382
C          1.08828        33.47421        -0.21269
C         -0.12699        34.23886        -0.08359
C          1.11980        36.26453         0.56644
C         -0.12812        35.57601         0.18895
C          1.18333        37.72677         0.72855
C          3.66319         3.54912         0.72683
C          2.32558         3.98429         0.17966
C          3.54745         6.16702        -0.53268
C          2.28442         5.50941        -0.01456
C          3.65774         7.64753        -0.50714
C          2.48187         8.41497        -0.07130
C          3.63421        10.47141        -0.76300
C          2.41184         9.79256        -0.36677
C          3.64314        12.01355        -0.77213
C          2.34620        12.74900        -0.57232
C          3.61710        14.84435        -0.24872
C          2.42599        14.16628        -0.16524
C          3.63054        16.30724        -0.16426
C          2.42131        17.01579        -0.18829
C          3.64656        19.15512        -0.21791
C          2.41609        18.44681        -0.15403
C          3.64260        20.59586        -0.19767
C          2.40655        21.30800        -0.06380
C          3.62909        23.45729        -0.13850
C          2.39933        22.73828        -0.04903
C          3.63227        24.88549        -0.16135
C          2.39678        25.60184        -0.09308
C          3.60671        27.72092        -0.42786
C          2.39961        27.03888        -0.19016
C          3.55515        29.17336        -0.70176
C          2.34307        29.93913        -0.34636
C          3.61297        32.07731        -0.55722
C          2.35864        31.34248        -0.39756
C          3.62329        33.49452        -0.47823
C          2.32872        34.26401        -0.54860
C          3.64864        36.33296         0.13119
C          2.40964        35.54849         0.24931
C          3.63892        37.70567         0.49402
C          2.37155        38.37611         0.75041
C          6.08472         3.62217         0.83950
C          4.83053         4.13551         0.33935
C          6.14987         6.03389        -0.85030
C          4.83068         5.35507        -0.52559
C          6.14432         7.57410        -1.00782
C          4.86913         8.29791        -0.71316
C          6.10118        10.45611        -0.44501
C          4.92261         9.74603        -0.59621
C          6.07566        11.91056        -0.00459
C          4.87550        12.71141        -0.42784
C          6.11007        14.82099        -0.19595
C          4.87891        14.10896        -0.30671
C          6.12122        16.26674        -0.18266
C          4.88065        16.99901        -0.17751
C          6.12032        19.12490        -0.33496
C          4.88952        18.42822        -0.24951
C          6.11827        20.59107        -0.68483
C          4.85276        21.31579        -0.30377
C          6.09662        23.45378        -0.23821
C          4.85868        22.73402        -0.24358
C          6.09801        24.87886        -0.21038
C          4.86749        25.59784        -0.24106
C          6.09051        27.73431        -0.47313
C          4.86486        27.03073        -0.39598
C          6.15866        29.17129        -0.96238
C          4.83824        29.93046        -0.91912
C          6.07380        32.10702        -0.63090
C          4.84710        31.38789        -0.66535
C          6.05879        33.52078        -0.59538
C          4.83448        34.22601        -0.49393
C          6.05452        36.40107        -0.18750
C          4.84563        35.67795        -0.25108
C          6.07429        37.76402         0.24923
C          4.84757        38.41117         0.54161
C          8.53720         3.44747         0.73592
C          7.29243         4.05737         0.36551
C          8.69941         5.66706        -0.87276
C          7.34652         5.02139        -0.78926
C          8.63627         7.83609        -1.17103
C          7.39066         8.39497        -0.89530
C          8.60345        10.48337        -0.40849
C          7.37656         9.77314        -0.50732
C          8.63875        11.92540         0.05675
C          7.35293        12.67452        -0.21457
C          8.62631        14.77586        -0.10388
C          7.33475        14.05210        -0.19583
C          8.62037        16.27162        -0.11681
C          7.33430        16.99158        -0.19934
C          8.59704        19.13700        -0.23996
C          7.34852        18.42033        -0.26654
C          8.60770        20.58301        -0.18269
C          7.36323        21.32508        -0.25418
C          8.56108        23.46989         0.13478
C          7.32844        22.70887        -0.14801
C          8.57363        24.93086        -0.10135
C          7.33514        25.61577        -0.18596
C          8.57284        27.73872        -0.24737
C          7.32391        27.03986        -0.29622
C          8.57291        29.21628        -0.12253
C          7.28408        29.95777        -0.32465
C          8.56060        32.09277        -0.42458
C          7.34089        31.41376        -0.54868
C          8.60209        33.52835        -0.48722
C          7.33881        34.23803        -0.72805
C          8.58923        36.40427        -0.14068
C          7.33250        35.76472        -0.53350
C          8.55998        37.78999         0.23944
C          7.31235        38.44778         0.38545
C         10.92967         3.10619         0.52503
C          9.77590         3.99758         0.45699
C         11.02605         6.23417        -0.18552
C          9.83870         5.35796        -0.15420
C         11.06398         7.63310        -0.64773
C          9.86489         8.42160        -0.81212
C         11.09837        10.53904        -0.62813
C          9.84344         9.82314        -0.57238
C         11.08109        11.93815        -0.68807
C          9.87029        12.67117        -0.42678
C         11.03020        14.82887        -1.02489
C          9.85887        14.04486        -0.47312
C         11.05398        16.28725        -0.64295
C          9.87438        16.98820        -0.44406
C         11.05397        19.12815        -0.40315
C          9.84981        18.43271        -0.32871
C         11.11298        20.54121         0.07908
C          9.81912        21.26842        -0.10562
C         11.11691        23.44233        -0.15321
C          9.86775        22.71603         0.09931
C         11.07735        24.89465        -0.52812
C          9.79127        25.62175        -0.18675
C         11.09509        27.75262        -0.42170
C          9.77764        27.03806        -0.20977
C         11.10250        29.24159        -0.01256
C          9.81457        29.97890        -0.25378
C         11.06757        32.10537        -0.24829
C          9.81342        31.36272        -0.30342
C         11.05267        33.52427        -0.20191
C          9.79985        34.23968        -0.31876
C         11.03012        36.37325         0.07421
C          9.79862        35.68193        -0.16422
C         11.01934        37.78847         0.33393
C          9.78144        38.46542         0.44838
C         13.45007         2.92792         0.73388
C         12.16771         3.55786         0.90129
C         13.45340         6.43106         0.35018
C         12.17569         5.83894         0.52992
C         13.57464         7.58728        -0.60140
C         12.28272         8.36635        -0.61863
C         13.58786        10.47455        -0.67933
C         12.32098         9.78039        -0.70226
C         13.63459        11.92385        -0.94943
C         12.31913        12.67694        -0.99750
C         13.55082        14.82315        -0.73478
C         12.34964        14.13614        -0.82056
C         13.54683        16.27980        -0.67749
C         12.32099        16.95992        -0.69271
C         13.60863        19.17355        -0.62829
C         12.29347        18.42581        -0.72793
C         13.58237        20.62491        -0.32861
C         12.35530        21.31436        -0.29029
C         13.56542        23.49145        -0.26254
C         12.33716        22.75483        -0.24588
C         13.53781        24.90512        -0.07836
C         12.34695        25.60766        -0.13336
C         13.54558        27.84827         0.11372
C         12.26100        27.04958         0.30197
C         13.57044        29.17681        -0.16768
C         12.33126        29.95120        -0.57968
C         13.51922        32.12312        -0.15783
C         12.31493        31.42095        -0.22082
C         13.52301        33.54679        -0.07495
C         12.27739        34.24286        -0.08644
C         13.49777        36.37933         0.16971
C         12.27053        35.67420         0.04260
C         13.48486        37.80028         0.40598
C         12.24491        38.47109         0.50623
C         15.96813         3.21355         0.66332
C         14.63648         3.59414         1.01025
C         15.92022         6.29789         0.42210
C         14.61457         5.84093         0.82240
C         15.96049         7.71224         0.09119
C         14.80994         8.38491        -0.26107
C         16.03952        10.53906        -0.31452
C         14.78651         9.81317        -0.41329
C         16.05015        11.98620        -0.37248
C         14.85991        12.68870        -0.62751
C         15.98752        14.84684        -0.27309
C         14.81086        14.11662        -0.59081
C         16.01273        16.26519        -0.26754
C         14.79786        16.98945        -0.50273
C         16.04870        19.08882        -0.13792
C         14.83356        18.39768        -0.41202
C         15.99398        20.52778         0.18200
C         14.78620        21.28907        -0.07852
C         16.03001        23.47396         0.34468
C         14.87317        22.76288        -0.37260
C         16.10806        24.95079        -0.11364
C         14.79972        25.62603         0.26359
C         16.10463        27.83010         0.19332
C         14.81144        27.11913         0.34196
C         16.12026        29.20719         0.06487
C         14.85515        29.90885        -0.27081
C         16.04104        32.14567         0.07440
C         14.81086        31.40534        -0.23807
C         16.00314        33.52306         0.00621
C         14.76243        34.25798        -0.06190
C         15.95783        36.42607         0.15570
C         14.75127        35.68871         0.06151
C         15.94936        37.82831         0.44217
C         14.70753        38.49452         0.56371
C         18.36986         3.36828         0.50232
C         17.08434         4.05691         0.54397
C         18.31771         6.18299        -0.08753
C         17.07344         5.50573         0.39522
C         18.46218         7.65026        -0.00574
C         17.23841         8.44240         0.38904
C         18.49863        10.56198        -0.24949
C         17.22000         9.84927        -0.12265
C         18.47508        11.99891         0.09933
C         17.26675        12.67305         0.00735
C         18.49616        14.92110         0.38074
C         17.16795        14.12823         0.21891
C         18.49140        16.29458        -0.09559
C         17.27001        16.98037        -0.17803
C         18.55328        19.14969        -0.14429
C         17.28015        18.42407        -0.15947
C         18.59319        20.56546        -0.00487
C         17.34905        21.30029         0.27902
C         18.57810        23.42230         0.44123
C         17.33046        22.73745         0.11785
C         18.56731        24.97036         0.62162
C         17.32128        25.69967         0.39519
C         18.58258        27.81994         0.42892
C         17.33621        27.09105         0.33398
C         18.53698        29.26035         0.45226
C         17.34353        29.94124         0.24604
C         18.57049        32.16053         0.29742
C         17.27522        31.42444         0.57172
C         18.56124        33.55856         0.10228
C         17.27951        34.25265        -0.13566
C         18.50344        36.46814         0.20931
C         17.24744        35.76747        -0.08665
C         18.44079        37.86572         0.49030
C         17.18269        38.52058         0.57649
C         19.55797         3.97188         0.26959
C         20.87806         6.12399        -0.12748
C         19.62034         5.37447        -0.17023
C         20.89072         7.47896        -0.24434
C         19.68022         8.26927        -0.18712
C         21.00634        10.51433         0.06344
C         19.76856         9.76946        -0.28441
C         20.99769        11.83906         0.30526
C         19.75813        12.64378         0.45800
C         21.01722        14.96395         0.31012
C         19.78796        14.17214         0.53701
C         21.00041        16.22689        -0.14363
C         19.75430        16.94110        -0.61498
C         20.95149        19.18248        -0.52917
C         19.76535        18.44798        -0.37674
C         20.98208        20.56994        -0.40055
C         19.80995        21.29983        -0.11202
C         21.00877        23.50157         0.25562
C         19.84470        22.74101         0.16505
C         21.01289        24.90799         0.41403
C         19.84862        25.68444         0.48685
C         21.03533        27.91024         0.43310
C         19.81482        27.12268         0.45011
C         21.03292        29.25025         0.60461
C         19.77115        30.02106         0.89683
C         20.98486        32.20251         0.32941
C         19.78835        31.47390         0.44356
C         20.97542        33.58485         0.16989
C         19.76660        34.30507         0.09367
C         20.91861        36.52888         0.34932
C         19.73658        35.77724         0.17041
C         20.87078        37.90971         0.57813
C         19.65699        38.57746         0.66988
O          1.87736        35.50324         1.59974
O         17.60487        14.66134         1.50437
O         19.78862        13.36454         1.74770
O         14.53912         4.79672         1.74077
O          9.21777        23.11205         1.40384
O         18.80186         5.63544        -1.35895
O          3.97261         5.38925        -1.70850
O         13.00191        12.25190        -2.24497
O          6.08573         6.67385        -2.15690
O          8.73961         6.62987        -1.87765
O         14.95454        30.65149        -1.55836
O         17.28989        35.03507        -1.37683
O          1.41756        12.50245        -1.70025
O          8.76629        15.51396         1.17610
O         18.50752        24.06542         1.78920
O         19.19176        10.26187        -1.55732
O          7.36951        35.15589        -1.87095
O         12.98500        18.95091        -1.94752
O         14.77887        26.26848         1.57329
O          4.01504        29.54532        -2.07726
O         12.12196         4.83972         1.49773
O         16.61780        20.82758         1.47419
O          1.09095         5.89515        -0.70678
O          7.68753        29.60312         1.02897
O          3.64451        11.24955        -2.01891
O          8.74136        11.85726         1.53509
H          8.89997        12.77387         1.85321
O          1.48982        15.24222         1.75919
H          1.60774        14.41073         2.26333
O         15.72823        23.46824         1.75315
H         16.56869        23.65727         2.23341
O          6.14616        20.61385        -2.17203
H          6.10121        21.55443        -2.44811
O          0.28701        10.03085        -1.46346
H          0.64996        10.53032        -2.22945
O          6.54451        29.08418        -2.36559
H          5.70882        28.96298        -2.87503
O         15.21259        22.70291        -1.82634
H         14.40625        22.40369        -2.30109
O         19.65674        30.11830         2.37178
H         19.68031        29.20273         2.72526
O          2.18815        34.70042        -1.94466
H          2.22566        33.90270        -2.51369
O         11.28096        29.34805         1.42315
H         10.58151        28.82385         1.86830
O         16.26417        25.07627        -1.55199
H         15.91026        24.26194        -1.99023
O         11.32794        27.58611        -1.84750
H         11.73324        28.40867        -2.22855
O         12.32736        29.97539        -2.04214
H         13.22985        30.29814        -2.30187
O          2.17208         3.37850        -1.13145
H          2.76034         3.87930        -1.74674
O         11.99444        26.96751         1.72849
H         12.82366        26.62492         2.14126
O         11.23215        20.41324         1.56735
H         10.94380        21.26804         1.95881
O         13.76927         7.02555        -1.94019
H         13.85527         7.77501        -2.56678
O         10.81742        14.84676        -2.48938
H         11.22245        14.03292        -2.86157
O         11.07638        24.88379        -2.01726
H         11.15250        25.83638        -2.28936
O          7.18245         4.22526        -1.99294
H          7.03280         4.85907        -2.73031
O          0.97308        15.95467        -1.77781
H          0.92579        16.80244        -2.26634
O         19.73907        16.76468        -2.07712
H         18.96818        17.25970        -2.42739
O         17.32043         8.55546         1.86415
H         16.55821         9.09558         2.16412
O         17.13687        31.45153         2.04065
H         17.96719        31.05311         2.40925
O          5.94658        11.79843         1.48048
H          6.86818        11.66422         1.82213
H          1.11762         2.37567         1.12616
H         -0.36459         3.82094         2.44707
H         -0.21770         6.27585         2.37264
H         -0.14835         8.27059         2.12860
H         -0.43458        10.59834         1.41457
H         -1.05660        12.22712         0.25838
H         -0.96148        14.58450         0.74397
H         -1.05150        16.54466         0.14489
H         -0.97369        18.94436         0.37656
H         -0.99825        20.81240         0.23015
H         -1.00083        23.22665         0.25947
H         -0.99707        25.12904         0.26513
H         -0.99863        27.54211         0.20259
H         -0.98101        29.42506         0.42112
H         -0.99488        31.84544         0.32764
H         -1.09323        33.73389        -0.23241
H         -1.07246        36.13953         0.21182
H          0.24067        38.28527         0.83072
H          3.70529         2.65585         1.36817
H          2.39829        39.46504         0.90614
H          6.04664         2.82690         1.59841
H          4.85362        39.46933         0.84168
H          8.49693         2.46765         1.23409
H          7.30203        39.50843         0.67676
H         10.77414         2.05163         0.25296
H          9.77216        39.53651         0.69765
H         13.48429         1.95637         0.22134
H         12.23363        39.55133         0.71262
H         16.14407         2.14051         0.48317
H         14.69207        39.57488         0.76763
H         18.35907         2.29782         0.75830
H         17.16281        39.60251         0.77420
H         20.49732         3.40751         0.36801
H         21.81843         5.56597        -0.00682
H         21.85685         8.00189        -0.27380
H         21.96669         9.97761         0.07071
H         21.94455        12.34461         0.54626
H         21.97302        14.50504         0.60430
H         21.95995        16.75176        -0.25953
H         21.89003        18.66065        -0.76130
H         21.94181        21.09166        -0.51669
H         21.98560        23.01081         0.13646
H         21.99258        25.40622         0.40678
H         21.99495        27.39256         0.29198
H         21.99479        29.78118         0.62909
H         21.95528        31.69670         0.42030
H         21.93845        34.11146         0.13743
H         21.89974        36.03704         0.31817
H         21.81032        38.46501         0.70769
H         19.62729        39.65689         0.87467
