         320
 CSIRO Nanostructure Databank - Neutral Graphene Oxide Data Set
C         30.26794        31.86348        -1.04165
C         30.25777        32.92911        -0.40596
C         30.28852        36.10028         0.40154
C         30.29601        37.29458         0.71698
C         30.35299        40.33921         1.62218
C         30.36624        41.57437         1.66067
C         32.61854        28.96828        -1.65809
C         31.58761        29.66583        -1.59567
C         32.64169        31.70979        -1.00455
C         31.42237        31.05293        -1.29194
C         32.70773        33.07449        -0.51446
C         31.42748        33.71417        -0.01399
C         32.68998        35.96364         0.12581
C         31.41435        35.16498         0.30828
C         32.69905        37.38027         0.62512
C         31.47434        37.92620         1.42022
C         32.80177        40.24351         1.48627
C         31.51034        39.43375         1.64254
C         32.77600        41.71515         1.44215
C         31.52376        42.47080         2.03098
C         32.67784        44.44036         1.17379
C         31.65250        43.85579         1.51059
C         35.30939        27.24868        -0.96379
C         35.15816        28.69716        -1.40909
C         33.89087        29.40742        -0.92540
C         35.18127        31.63726        -0.69434
C         33.93006        30.96171        -1.33590
C         35.17925        33.16621        -0.97015
C         33.90114        33.80325        -0.45240
C         35.17589        35.88142         0.04795
C         33.96516        35.20354        -0.06625
C         35.18893        37.41175         0.11134
C         34.03622        38.00352         0.99479
C         35.27848        40.25545         1.27827
C         33.97015        39.54697         0.77959
C         35.29274        41.71601         0.84266
C         33.98498        42.45794         1.02595
C         35.06681        44.58141         0.19864
C         34.11096        44.00806         1.23830
C         35.47795        46.01020         0.41025
C         37.78634        27.16022        -0.72531
C         36.42738        26.73314        -0.83100
C         37.79922        28.61734        -1.30227
C         36.47047        29.38044        -0.82913
C         37.70260        31.62015        -0.59300
C         36.49434        30.90827        -1.19943
C         37.74693        33.13311        -0.83458
C         36.44351        33.85202        -0.49993
C         37.73997        35.91059         0.18129
C         36.43725        35.18542        -0.16883
C         37.74981        37.41113         0.04852
C         36.51253        38.04651         0.53943
C         37.91832        40.25111         0.99588
C         36.57364        39.47858         0.98194
C         37.84892        41.73070         0.60134
C         36.59761        42.51556         0.98312
C         37.77097        44.54233        -0.13290
C         36.48104        43.83133         0.19572
C         37.80703        46.07926        -0.46180
C         36.47278        46.58936        -0.01249
C         39.95345        24.57343         0.84135
C         39.03178        25.15322         0.23854
C         40.14718        27.22632         0.06558
C         38.87717        26.48767        -0.27682
C         40.16995        28.70813        -0.10804
C         39.14135        29.41525        -1.00325
C         40.25680        31.58759        -0.38324
C         38.99427        30.85107        -0.46426
C         40.23456        33.01839        -0.09860
C         38.96108        33.79721        -0.20725
C         40.13385        35.98342        -0.58920
C         38.99014        35.28103        -0.38812
C         40.14250        37.49970        -0.78840
C         38.92121        38.16087        -0.13229
C         40.19489        40.32042        -0.27602
C         38.99924        39.52596         0.19591
C         40.32529        41.63624         0.49265
C         39.02017        42.41055         0.40370
C         40.25432        44.54800         0.30314
C         39.06938        43.86432         0.21640
C         40.29412        46.02362         0.11137
C         38.96947        46.74767         0.20341
C         40.21825        48.78846         0.81525
C         39.19450        48.02500         0.55358
C         42.52049        24.61670         1.53487
C         41.36867        24.96573         0.69937
C         42.76510        27.23185         0.31828
C         41.44759        26.46489         0.24501
C         42.74476        28.73867         0.44040
C         41.47456        29.46552         0.09584
C         42.67113        31.68001         0.34856
C         41.59886        30.88669        -0.45313
C         42.76589        33.11074        -0.12276
C         41.46760        33.75488        -0.57156
C         42.74040        35.91047        -0.81156
C         41.43925        35.27309        -0.26475
C         42.72880        37.50939        -0.96332
C         41.45732        38.18894        -0.43031
C         42.80634        40.32265        -0.47068
C         41.49920        39.53184        -0.26526
C         42.75292        41.76178        -0.00899
C         41.58908        42.42568         0.18285
C         42.82721        44.67627         0.36298
C         41.56400        43.86332         0.67512
C         42.84838        46.03094         0.51654
C         41.56634        46.79862         0.33857
C         42.81507        48.80483         0.74006
C         41.48482        48.29454         0.65896
C         43.50087        25.35286         1.76110
C         45.02122        27.42326         1.46205
C         43.79213        26.76882         1.92632
C         45.06188        28.93775         1.51409
C         44.11221        29.45155         0.36444
C         45.18157        31.68302         0.49310
C         44.02221        30.97514         0.40861
C         45.25528        33.09599        -0.06297
C         43.92018        33.79951        -0.04424
C         45.22629        35.94879        -0.44165
C         43.92460        35.29824         0.01426
C         44.97886        37.33689         0.05976
C         43.94795        38.13051        -0.27380
C         45.33864        40.32049        -0.11699
C         43.99829        39.57846         0.19158
C         45.31920        41.68245        -0.15659
C         44.07532        42.43905         0.32411
C         45.39829        44.61225         0.13074
C         44.03826        43.89989        -0.14828
C         45.23258        46.16216        -0.22690
C         44.20247        46.79502         0.69600
C         43.88697        48.24129         0.45090
C         46.51221        26.00054        -0.17551
C         45.83833        26.71347         0.61987
C         47.60690        29.02059         1.76477
C         46.42743        29.59478         1.35315
C         47.71615        31.73269         0.81544
C         46.38822        31.11053         1.22277
C         47.74814        33.18790         0.46371
C         46.46625        33.94430         0.32288
C         47.81122        35.99407        -0.20555
C         46.48241        35.29152         0.11476
C         47.90248        37.51437        -0.20577
C         46.85514        38.34271         0.19614
C         47.80332        40.25671        -0.83015
C         46.65434        39.64812        -0.27665
C         47.69022        41.69846        -1.27107
C         46.66524        42.41428        -0.32247
C         47.68633        44.64061        -1.19758
C         46.48776        43.89139        -0.67732
C         47.60247        46.05611        -0.78953
C         46.65752        46.63891        -0.25058
C         50.14221        29.15342         2.10779
C         48.85644        29.78119         1.79451
C         50.19672        31.88582         1.53535
C         48.93184        31.09353         1.38821
C         50.31141        33.18065         0.70792
C         49.00668        33.96600         0.76779
C         50.26705        36.33878         0.54222
C         49.01135        35.43872         0.54034
C         50.32830        37.23678        -0.76299
C         49.07466        38.14025        -0.68101
C         50.29677        40.29816        -1.20920
C         49.02685        39.54278        -0.88280
C         50.18642        41.80379        -0.92218
C         49.02159        42.44044        -1.20538
C         50.22385        44.51158        -1.15564
C         48.95171        43.94320        -1.65376
C         51.25026        29.73856         1.97542
C         52.66888        31.85918         1.32569
C         51.71754        30.77837         1.05941
C         52.67932        33.08460         1.14162
C         51.53825        34.03484         1.12225
C         52.70223        36.34766         0.54719
C         51.54451        35.51216         0.91321
C         52.66445        37.34710        -0.16748
C         51.70774        38.13560        -0.97573
C         52.65209        40.52259        -0.87872
C         51.53123        39.58284        -0.52038
C         52.65563        41.75390        -0.92445
C         51.49513        42.58620        -0.45799
C         51.31796        43.98771        -0.93637
O         36.66729        38.37329         1.95660
O         41.90450        29.27853         1.48463
O         41.62879        25.31998        -0.66501
O         31.49829        34.18237         1.36161
O         41.07775        46.50101        -1.03530
O         51.41477        34.93221         2.23405
O         37.02195        43.77754        -1.15133
O         32.34152        39.71028         2.81130
O         46.55449        44.29921        -2.07748
O         48.76338        34.88812         1.86730
O         38.09472        31.12913         0.70643
O         39.44142        33.40797         1.11804
O         45.87447        37.79949         1.03250
O         35.16369        33.28160        -2.47933
O         34.52598        42.06529        -0.32530
O         47.89415        32.14606        -0.59208
O         42.66902        37.81340        -2.34216
O         39.75622        28.14425         1.16180
O         47.26232        41.76895        -2.68697
O         32.50271        37.11518        -0.78417
O         36.64078        31.02914        -2.61962
H         35.80403        30.70279        -3.04682
O         34.02975        30.96863        -2.77692
H         33.95905        31.90360        -3.08379
O         44.74500        29.13468        -0.87620
H         44.22675        29.53348        -1.60740
O         42.93813        35.41693        -2.14752
H         42.98064        36.24134        -2.72466
O         37.76301        28.45704        -2.71976
H         36.85224        28.20171        -3.00633
O         47.32866        42.36992         0.96010
H         46.79890        42.91891         1.58879
O         40.51862        41.26711         1.87993
H         40.66798        42.10346         2.38351
O         51.37016        39.61845         0.87439
H         51.35513        40.55892         1.17244
O         46.09973        40.92004        -2.85529
H         45.33575        41.54786        -2.79361
O         41.41462        35.38389         1.18676
H         40.69876        34.78898         1.52362
O         34.29939        37.67710         2.36241
H         33.44579        37.68236         2.86194
O         51.72076        30.35627        -0.23949
H         52.07930        31.06167        -0.81730
O         41.34737        33.47045        -1.99934
H         41.97981        34.08036        -2.46990
O         35.09943        31.53991         0.72383
H         35.22607        30.59186         0.99130
O         48.96979        43.92305        -3.07774
H         48.04875        43.76102        -3.38435
O         31.57417        37.31495         2.70808
H         30.91899        37.72348         3.31258
O         39.84581        29.58658        -2.23945
H         39.23724        29.35347        -2.98165
O         45.78149        44.44974         1.49529
H         45.25585        45.05671         2.07064
O         34.47802        44.45972        -1.06932
H         35.18945        44.49825        -1.74576
O         45.37045        35.94748        -1.87682
H         45.22664        35.01866        -2.17672
O         37.96955        46.21709        -1.86020
H         37.43693        45.51969        -2.30073
O         50.52612        40.22858        -2.64347
H         49.79920        40.70583        -3.09982
O         37.87892        35.73206         1.63288
H         38.14434        34.80166         1.81293
O         45.46413        32.89802        -1.51605
H         46.35246        32.46939        -1.61129
O         38.28931        40.27574         2.40092
H         38.16184        39.36218         2.74801
O         46.18907        31.63190         2.58224
H         45.39402        31.16593         2.94091
O         47.68866        27.73795         2.17744
H         48.63658        27.50256         2.28325
O         52.04970        38.09049        -2.34774
H         51.73401        38.91638        -2.78916
O         42.22112        31.84218         1.71745
H         42.20998        30.94977         2.14276
O         41.60304        43.77351         2.14599
H         42.48160        43.35866         2.35561
O         50.41594        32.20015         2.87415
H         50.19804        31.42983         3.43866
O         44.73041        46.29686        -1.54411
H         45.41394        45.94313        -2.16294
O         34.60823        44.29028         2.52493
H         33.94185        44.04281         3.19903
O         36.36337        29.21612         0.58495
H         37.13591        29.65636         1.02204
O         33.72859        29.22575         0.44531
H         32.88317        29.62300         0.73970
O         44.48336        29.44671         2.73966
H         44.84910        28.93816         3.49350
O         37.94836        33.33815        -2.26218
H         37.42785        32.64564        -2.74587
O         50.29531        36.36886        -1.87753
H         50.92259        36.73294        -2.55278
O         35.16392        28.71362        -2.82878
H         34.25376        28.49877        -3.13886
O         43.81853        39.64803         1.63074
H         44.45747        39.00835         2.02295
O         47.99650        35.58501        -1.58654
H         47.22889        35.93650        -2.10004
O         43.57793        26.86227        -0.72111
H         43.37603        25.93279        -0.98265
O         44.59470        46.67401         2.06717
H         44.01079        47.23798         2.61625
O         43.83635        43.80974        -1.57064
H         43.70684        44.72324        -1.92044
O         35.38195        34.66150        -2.84124
H         36.37069        34.70834        -2.92797
O         42.09227        30.79333        -1.80978
H         41.92901        31.67825        -2.22859
O         50.07739        37.25568         1.62574
H         50.08828        36.72934         2.45581
O         44.11179        42.43306         1.78481
H         44.05993        41.47559         2.04994
O         31.64026        42.48357         3.43550
H         31.71599        41.54942         3.73837
O         43.06342        40.40234        -1.88277
H         42.98986        39.47735        -2.26540
O         33.70000        39.68296        -0.61531
H         33.76787        40.63430        -0.87973
O         35.17883        40.32618         2.71461
H         35.24747        39.39734         3.04684
O         35.07905        37.78483        -1.27418
H         34.14522        37.63295        -1.56263
O         36.78079        42.84492         2.37337
H         37.08464        42.03091         2.83806
O         43.91103        35.62785         1.41913
H         43.06526        35.30626         1.81384
O         39.92353        40.62225        -1.66978
H         39.97568        39.77303        -2.17442
O         43.19689        27.30585         3.04700
H         42.40618        26.78592         3.29518
O         51.47786        42.53562         0.95694
H         52.23270        43.05528         1.30370
O         50.53253        32.83914        -0.67379
H         49.68938        32.46877        -1.03578
O         40.02729        37.74756        -2.21781
H         40.97519        37.73052        -2.57175
