         404
 CSIRO Nanostructure Databank - Neutral Graphene Oxide Data Set
C          1.77971         3.62857         3.09680
C          0.66496         4.35310         3.48556
C          1.74253         6.46294         2.85658
C          0.63553         5.74964         3.35167
C          1.67139         7.89355         2.63608
C          0.47060         8.61100         2.60138
C          1.58987        10.73698         2.04180
C          0.43715         9.99290         2.37840
C          1.55311        12.17920         1.81972
C          0.30946        12.86171         1.62402
C          1.04232        15.22372         1.38331
C          0.09592        14.18963         1.23374
C          1.17158        16.47046         0.69495
C         -0.01701        17.10702         0.22913
C          1.18591        19.20146        -0.08464
C         -0.01820        18.43538        -0.10937
C          1.14141        20.61382        -0.25087
C         -0.05875        21.36988        -0.32506
C          1.04679        23.53566        -0.80740
C         -0.10830        22.74025        -0.54608
C          1.02931        24.92363        -1.01904
C         -0.16832        25.72856        -1.00731
C          1.06592        27.90452        -0.98079
C         -0.16919        27.09304        -1.03995
C          1.03941        29.39083        -1.16176
C         -0.10316        30.15225        -1.06113
C          1.11948        32.29170        -0.83046
C         -0.07021        31.57805        -0.99121
C          1.19065        33.74441        -0.72429
C          0.00965        34.53739        -0.47328
C          1.24022        36.66586        -0.63441
C          0.04206        35.89216        -0.31044
C          1.42453        38.05989        -0.19749
C          4.05591         3.56430         2.15817
C          2.92620         4.29461         2.58088
C          4.08314         6.37944         1.98719
C          2.92860         5.73092         2.49679
C          4.19038         7.84347         2.04543
C          2.90394         8.64836         2.40657
C          4.00290        10.66274         1.44650
C          2.83786        10.04512         1.96329
C          3.96070        12.06981         1.18554
C          2.79744        12.81263         1.56191
C          3.81925        14.93229         0.77690
C          2.92972        14.24048         1.55446
C          3.75628        16.42335         0.67614
C          2.44012        17.14423         0.53799
C          3.67819        19.18550        -0.22053
C          2.43852        18.49171         0.10337
C          3.66471        20.58861        -0.50324
C          2.40899        21.36013        -0.31662
C          3.56453        23.41204        -1.33475
C          2.35121        22.82420        -0.68578
C          3.56848        24.89909        -1.54961
C          2.28469        25.65291        -1.36763
C          3.59211        27.85408        -1.69296
C          2.35985        27.14019        -1.11076
C          3.61409        29.34701        -1.29208
C          2.32665        30.11979        -1.19227
C          3.57541        32.20295        -0.65248
C          2.35374        31.55442        -0.78974
C          3.66885        33.63127        -0.64100
C          2.44439        34.37554        -0.74017
C          3.82049        36.49214        -0.59148
C          2.53542        35.83425        -0.84205
C          3.87712        37.90290        -0.44111
C          2.64742        38.64694        -0.21319
C          6.33727         3.48040         1.22699
C          5.18694         4.20710         1.61138
C          6.32382         6.31587         0.94128
C          5.18497         5.64468         1.49776
C          6.31228         7.74186         0.77005
C          5.23449         8.51441         1.26958
C          6.26724        10.59242         0.43418
C          5.17877         9.92209         1.07745
C          6.20331        12.00119         0.18620
C          5.03319        12.72475         0.53871
C          6.08222        14.86037        -0.43611
C          4.88115        14.14238         0.13425
C          6.16955        16.33119        -0.38586
C          5.00089        17.09892         0.11586
C          6.10672        19.15125        -0.70895
C          4.90001        18.49573        -0.33243
C          6.09980        20.56789        -0.86516
C          4.85402        21.25522        -0.78228
C          6.11539        23.41800        -1.07159
C          4.85193        22.67322        -1.20211
C          6.00803        24.86738        -0.67459
C          4.89580        25.59974        -1.41648
C          6.03712        27.70384        -0.61039
C          4.90352        27.09039        -1.38166
C          6.02033        29.16034        -0.30720
C          4.75626        29.93346        -0.51279
C          6.09761        32.08885        -0.25058
C          4.78406        31.41841        -0.32424
C          6.14770        33.48719        -0.40146
C          4.92872        34.26628        -0.55540
C          6.25393        36.37747        -0.53900
C          5.00396        35.71439        -0.54357
C          6.32805        37.79424        -0.47607
C          5.12921        38.53616        -0.37170
C          8.67326         3.41062         0.46089
C          7.49304         4.13239         0.74360
C          8.61028         6.22945         0.02597
C          7.46976         5.56775         0.56504
C          8.54901         7.63396        -0.23574
C          7.42571         8.39499         0.14624
C          8.52836        10.52197        -0.51319
C          7.41156         9.83813         0.00517
C          8.51753        11.93293        -0.66288
C          7.33448        12.68241        -0.39119
C          8.40477        14.73416        -1.24722
C          7.32096        14.08911        -0.62342
C          8.43417        16.21352        -1.44370
C          7.27992        16.98127        -0.89621
C          8.53877        19.14253        -1.10914
C          7.32160        18.42953        -0.91733
C          8.55091        20.57786        -1.05826
C          7.32012        21.28072        -1.02441
C          8.56601        23.44332        -0.85783
C          7.31092        22.73058        -0.99287
C          8.54906        24.86544        -0.72025
C          7.32757        25.59633        -0.73781
C          8.52559        27.71987        -0.36170
C          7.34007        26.99552        -0.63271
C          8.49655        29.14997        -0.12063
C          7.29356        29.88754        -0.16290
C          8.54313        31.99398         0.03994
C          7.29584        31.31497        -0.11491
C          8.58906        33.41111        -0.13525
C          7.42702        34.13606        -0.41163
C          8.80964        36.31563        -0.72432
C          7.48203        35.58463        -0.72034
C          8.80831        37.76770        -0.43105
C          7.61006        38.45497        -0.40169
C         11.08375         3.36468        -0.09439
C          9.86080         4.06692         0.05588
C         11.02179         6.15070        -0.54545
C          9.81730         5.48370        -0.19546
C         10.97026         7.55533        -1.02632
C          9.66467         8.28233        -0.95361
C         10.98116        10.52682        -1.18187
C          9.68631         9.79386        -1.06914
C         10.95594        11.94675        -1.30103
C          9.64874        12.58514        -1.24936
C         11.26046        14.92283        -1.75425
C          9.44209        13.89314        -1.70874
C         11.09119        16.30861        -1.45191
C          9.78898        17.00090        -1.58635
C         10.98596        19.17198        -1.19807
C          9.78532        18.45483        -1.25836
C         11.01808        20.59667        -1.06082
C          9.79106        21.29845        -1.03270
C         11.02419        23.45204        -0.82232
C          9.78877        22.73576        -0.90161
C         10.98915        24.85028        -0.62977
C          9.77803        25.56972        -0.57197
C         10.96115        27.67001        -0.02374
C          9.77777        27.00592        -0.33614
C         10.93727        29.05845         0.44869
C          9.70704        29.84262         0.20858
C         10.94835        31.92582         0.78250
C          9.72661        31.23107         0.30509
C         11.01688        33.42961         0.64957
C          9.91983        34.07122        -0.12831
C         11.23831        36.24528         0.10414
C         10.05554        35.53749        -0.42930
C         11.24199        37.68787         0.03569
C         10.07539        38.40246        -0.20490
C         13.55803         3.39789        -0.40860
C         12.29648         4.04991        -0.33360
C         13.50444         6.23458        -0.46473
C         12.24182         5.47308        -0.51479
C         13.48981         7.72275        -0.63843
C         12.23090         8.36594        -1.10903
C         13.44011        10.55771        -1.06324
C         12.20371         9.84624        -1.12588
C         13.42291        11.97252        -1.05380
C         12.19034        12.67771        -1.24420
C         13.35498        14.81430        -0.45623
C         12.24874        14.12284        -1.21666
C         13.45459        16.29438        -0.77534
C         12.25961        16.99140        -1.08902
C         13.56014        19.17407        -1.10526
C         12.26764        18.44806        -1.30212
C         13.51094        20.62814        -0.87580
C         12.27742        21.31219        -0.94614
C         13.52391        23.43108        -0.78888
C         12.28881        22.74369        -0.85808
C         13.54586        24.90438        -0.79235
C         12.24559        25.62135        -0.63771
C         13.46719        27.80358        -0.36464
C         12.26954        26.93889         0.10323
C         13.52996        29.11368         0.39929
C         12.23776        29.75936         0.74043
C         13.41754        31.91853         1.07466
C         12.24052        31.23536         0.86192
C         13.47447        33.36623         1.08928
C         12.32647        34.10540         0.73966
C         13.51606        36.27057         1.07650
C         12.33102        35.53173         0.59803
C         13.60031        37.69825         0.70520
C         12.50385        38.36584         0.26145
C         16.02003         3.43124        -0.72942
C         14.78015         4.10458        -0.60096
C         15.97117         6.27291        -0.78797
C         14.78298         5.53624        -0.62741
C         15.96456         7.72367        -0.87405
C         14.75024         8.43848        -0.89501
C         15.93215        10.56915        -0.98328
C         14.70669         9.84749        -1.00836
C         15.90879        11.99802        -0.87266
C         14.66905        12.70331        -0.86560
C         15.86489        14.79493        -0.33873
C         14.66626        14.09461        -0.62113
C         15.86351        16.25065        -0.18799
C         14.67090        16.98176        -0.55269
C         15.93027        19.10855        -0.43257
C         14.74587        18.41136        -0.66691
C         15.95945        20.56155        -0.53549
C         14.73616        21.30535        -0.68148
C         16.01140        23.43213        -0.59730
C         14.76234        22.73620        -0.67733
C         16.04530        24.88706        -0.49395
C         14.79471        25.64373        -0.46609
C         16.00139        27.79240        -0.18562
C         14.75637        27.00537        -0.28360
C         15.98056        29.14956         0.43469
C         14.69503        29.78763         0.64256
C         15.95245        31.88648         1.35122
C         14.65506        31.10612         1.40523
C         15.91904        33.30303         1.58085
C         14.73190        34.01561         1.39439
C         16.07879        36.17259         1.36723
C         14.75454        35.49762         1.48851
C         16.09697        37.54823         0.96582
C         14.86389        38.41135         1.08634
C         18.48256         3.46302        -0.99094
C         17.22335         4.14472        -0.87217
C         18.43594         6.30312        -1.01889
C         17.21226         5.57645        -0.89826
C         18.43759         7.73447        -1.01518
C         17.19153         8.44365        -0.96637
C         18.41284        10.59284        -0.87796
C         17.17350         9.86716        -0.96026
C         18.39068        12.00059        -0.65996
C         17.12757        12.69815        -0.63704
C         18.29337        14.71507         0.20744
C         17.08418        14.07798        -0.33094
C         18.22934        16.19814         0.56075
C         17.03368        16.95068         0.13863
C         18.34173        19.06381         0.03659
C         17.12212        18.38330        -0.04463
C         18.42268        20.45813        -0.45759
C         17.17474        21.25150        -0.49079
C         18.49477        23.35883        -0.47228
C         17.23104        22.68668        -0.55009
C         18.55525        24.85781        -0.66460
C         17.25005        25.55376        -0.38763
C         18.50188        27.63894         0.31692
C         17.29237        27.02265        -0.24796
C         18.40017        28.94851         1.05381
C         17.14867        29.77141         0.82830
C         18.40995        31.83031         1.53549
C         17.15236        31.17069         1.24236
C         18.41175        33.17196         2.01244
C         17.14422        34.02159         2.15100
C         18.48767        36.24574         1.60904
C         17.26215        35.48149         1.64111
C         18.51753        37.51750         0.95109
C         17.29129        38.14933         0.62559
C         19.65487         4.16103        -1.11181
C         20.87531         6.32668        -1.21519
C         19.66560         5.59354        -1.11860
C         20.87552         7.70782        -1.18025
C         19.66602         8.44858        -1.06745
C         20.85409        10.64602        -0.87666
C         19.65358         9.89127        -0.95335
C         20.83909        12.00258        -0.63153
C         19.61753        12.71439        -0.45584
C         20.76889        14.80791         0.32355
C         19.59794        14.07376        -0.01133
C         20.74829        16.11481         0.75318
C         19.52500        16.91193         0.81311
C         20.84695        19.14400         0.44007
C         19.55686        18.43404         0.57114
C         20.93134        20.42369         0.04184
C         19.74657        21.17970        -0.43443
C         20.89727        23.37301        -0.05191
C         19.71719        22.66287        -0.33841
C         20.88963        24.76226         0.17553
C         19.75154        25.52560        -0.02376
C         20.90820        27.65625         0.63003
C         19.70620        26.93529         0.31989
C         20.88636        29.01682         0.88909
C         19.68281        29.73314         1.04328
C         20.85326        31.71202         1.90848
C         19.64938        31.10121         1.46305
C         20.82617        32.95160         2.50853
C         19.60375        33.64329         2.57324
C         20.84326        36.65379         2.25167
C         19.67217        35.91739         2.32818
C         20.89115        37.79902         1.42862
C         19.73851        38.23567         0.80899
O         11.49302        29.13453         1.86964
O          1.93391        27.54146         0.20325
O         12.87592        25.55563        -1.96265
O         19.41100        17.85512         1.92271
O          8.18035        35.93699        -1.97897
O         16.78591        27.76258        -1.43851
O          3.96994         8.39382         3.37939
O          4.41583        30.50789         0.79378
O         18.02213        15.18521         1.59227
O         10.38522        34.52496        -1.44172
O          1.78316        36.39956        -1.96208
O          4.75042        17.01948         1.58437
O          4.11051        22.74959        -2.51597
O          4.99336        14.37519        -1.32312
O         19.22691        20.63695        -1.70060
O         13.09317        18.81681        -2.46871
O          2.78437        25.29018        -2.71520
O         10.62838        32.82075         1.91456
O          3.16346        30.10405        -2.44346
O          2.58667        22.41920         0.70802
O         13.85719        36.05720         2.51135
O          5.73816        28.14385         0.74747
O          2.03838        14.97664         2.34520
O          5.37437        26.34982        -2.55860
O         19.62574        34.86625         3.26076
O          8.93845        16.67208        -2.72485
O          9.29860         8.93928        -2.20533
O         10.34553        14.37273        -2.66119
O         13.44929         7.16968         0.71778
O         11.67158         7.72544        -2.30646
O         16.88563        34.13437         3.57871
H         17.67404        34.56442         3.98024
O         18.26163        28.53549         2.48667
H         18.17305        29.35848         3.01586
O         13.25504        28.18785        -1.74384
H         13.24365        27.35297        -2.27534
O          5.56268        24.85859         0.72171
H          6.30579        24.55782         1.28590
O         12.47314        26.60348         1.50248
H         12.17537        27.38850         2.02909
O         14.52458        30.74119         2.82087
H         13.60798        30.42006         2.96538
O         18.76700        25.05077        -2.12290
H         18.00105        24.64898        -2.58663
O          3.42190        27.84630        -3.11438
H          3.60776        26.93007        -3.43329
O         14.74473        38.77741         2.47883
H         14.49253        37.95553         2.96285
O         13.00558        14.72456         0.97582
H         13.78609        15.02810         1.48737
H          1.78796         2.53229         3.17808
H         -0.21483         3.83273         3.88894
H         -0.27101         6.29011         3.65644
H         -0.48126         8.09244         2.78265
H         -0.53598        10.49739         2.44497
H         -0.58063        12.21667         1.56227
H         -0.86746        14.42130         0.75342
H         -0.96337        16.54871         0.25908
H         -0.96774        18.91689        -0.37616
H         -1.01901        20.85305        -0.18650
H         -1.09663        23.22126        -0.55699
H         -1.13896        25.21185        -0.97543
H         -1.13466        27.61845        -1.07108
H         -1.08893        29.66570        -1.02190
H         -1.03111        32.11061        -1.01153
H         -0.93317        34.00806        -0.27325
H         -0.84112        36.42304         0.07530
H          0.53854        38.63055         0.11938
H          4.05443         2.46845         2.25565
H          2.74463        39.70837         0.06072
H          6.34585         2.38676         1.34513
H          5.17938        39.62877        -0.25424
H          8.68808         2.32292         0.62358
H          7.62007        39.54248        -0.23220
H         11.09726         2.27508         0.05459
H         10.10819        39.50185        -0.16936
H         13.59345         2.30179        -0.31950
H         12.55723        39.44897         0.07411
H         16.04264         2.33157        -0.70727
H         14.98805        39.35512         0.50006
H         18.48966         2.36337        -0.97938
H         17.30262        39.18203         0.24684
H         20.61213         3.62632        -1.19764
H         21.82603         5.78105        -1.30277
H         21.83696         8.23493        -1.24249
H         21.82539        10.14343        -0.97585
H         21.79664        12.53280        -0.54296
H         21.74424        14.30429         0.27146
H         21.68987        16.58595         1.06624
H         21.74959        18.62547         0.79260
H         21.91519        20.91364         0.03242
H         21.84528        22.83600         0.07840
H         21.81235        25.22164         0.55601
H         21.88178        27.15600         0.54860
H         21.85129        29.53571         0.96639
H         21.80470        31.17011         1.85317
H         21.73080        33.40288         2.93457
H         21.71317        36.35663         2.85084
H         21.82424        38.37172         1.34157
H         19.73026        39.18280         0.25177
