         341
 CSIRO Nanostructure Databank - Neutral Graphene Oxide Data Set
C          1.35773         2.06770         0.98480
C          1.33468         3.49715         1.04155
C          2.50346         1.38424         0.66286
C          2.42751         4.25516         0.68451
C          1.25956         6.44396         0.98083
C          1.27291         7.83071         1.05273
C          2.44304         5.70582         0.77525
C          2.47894         8.56345         0.99785
C          1.31509        10.76239         0.80216
C          1.32839        12.16653         0.77441
C          2.46992        10.01210         1.01520
C          2.51802        12.91514         0.85854
C          1.34157        15.10694         0.64766
C          1.34878        16.50152         0.50397
C          2.53170        14.36429         0.75328
C          2.54550        17.20664         0.40214
C          2.57165        18.65350         0.31381
C          3.70800         2.08898         0.33280
C          3.61189         3.56968         0.03693
C          4.90757         1.42946         0.17639
C          4.92001         4.29352         0.23192
C          3.68078         6.41586         0.68457
C          3.70593         7.82941         0.86738
C          4.91389         5.69675         0.45566
C          4.97188         8.51054         0.91081
C          3.72598        10.75204         1.25596
C          3.75976        12.21983         1.01502
C          5.02077         9.96263         1.22620
C          4.97341        12.91810         0.97853
C          3.78984        15.05684         0.73234
C          3.80118        16.49392         0.49715
C          5.00508        14.34007         0.81398
C          4.99277        17.18760         0.35636
C          3.72551        19.32712         0.10284
C          4.99635        18.58467        -0.20925
C          6.14340         2.13001        -0.03303
C          6.12449         3.59188         0.03603
C          7.34421         1.43276        -0.12041
C          7.35537         4.29902        -0.00867
C          6.15059         6.40187         0.47176
C          6.16148         7.82162         0.73104
C          7.35048         5.67708         0.20493
C          7.48078         8.55717         0.94660
C          6.26350        10.71030         0.92861
C          6.25213        12.18059         1.07256
C          7.42585        10.04514         0.64752
C          7.53609        12.92143         0.75806
C          6.27848        15.04405         0.66508
C          6.28069        16.55108         0.79902
C          7.46222        14.37639         0.53002
C          7.50488        17.22495         0.23857
C          6.25369        19.33907         0.09484
C          7.47943        18.66092         0.09540
C          8.61152         2.08486        -0.22041
C          8.60561         3.57250        -0.48750
C          9.81488         1.39498        -0.19480
C          9.90642         4.21390        -0.07468
C          8.62842         6.42187         0.25156
C          8.53995         7.89672         0.12519
C          9.91380         5.67950         0.12563
C          9.41171         8.64287        -0.59627
C          8.62998        10.75695         0.21769
C          8.68470        12.16571         0.21489
C          9.70366        10.04243        -0.37447
C          9.80728        12.81397        -0.33695
C          8.80292        15.04738         0.34620
C          8.68571        16.52238         0.02143
C          9.64327        14.27852        -0.70898
C          9.86156        17.21330        -0.34840
C          8.71975        19.34924        -0.03504
C          9.91554        18.63860        -0.25785
C         11.09647         2.05946        -0.16701
C         11.07763         3.51046        -0.01037
C         12.31193         1.37921        -0.19706
C         12.36875         4.18624         0.27516
C         11.19051         6.37754        -0.14721
C         11.27312         7.58011        -0.79992
C         12.42410         5.71750         0.27415
C         12.34091         8.50746        -0.65400
C         10.96173        10.65326        -0.68704
C         10.98288        12.08760        -0.66587
C         12.22951         9.89389        -0.83979
C         12.21289        12.83421        -0.94399
C         10.97455        14.98581        -0.98624
C         11.05287        16.47227        -0.79848
C         12.23449        14.20189        -0.99780
C         12.36581        17.14058        -0.71499
C         11.18060        19.29314        -0.35512
C         12.38736        18.57937        -0.51314
C         13.59450         2.03647        -0.14792
C         13.62674         3.48415         0.00409
C         14.80231         1.35344        -0.30127
C         14.80572         4.20065        -0.11907
C         13.66459         6.38145        -0.14234
C         13.67488         7.89708        -0.24614
C         14.80358         5.63592        -0.29858
C         14.68916         8.46254        -1.23635
C         13.49517        10.61832        -0.93475
C         13.50014        12.09451        -1.25483
C         14.71738         9.96192        -1.01029
C         14.69836        12.78733        -0.60694
C         13.49823        14.96582        -1.38028
C         13.52828        16.42245        -0.93145
C         14.76594        14.24121        -0.98599
C         14.79459        17.09851        -0.94880
C         13.62750        19.24603        -0.52637
C         14.84156        18.54671        -0.77017
C         16.07249         2.02062        -0.27052
C         16.11544         3.48767         0.10104
C         17.26886         1.35045        -0.41951
C         17.33636         4.21712        -0.40478
C         16.04405         6.29118        -0.78169
C         16.02941         7.73761        -1.18180
C         17.33223         5.60835        -0.56888
C         17.28131         8.50516        -1.02901
C         15.98889        10.65468        -0.98627
C         16.00177        12.04916        -0.84580
C         17.24240         9.92027        -0.97432
C         17.22658        12.76726        -0.76148
C         15.96234        14.91576        -0.90092
C         15.99294        16.36507        -1.02135
C         17.21911        14.19898        -0.71920
C         17.25058        17.04614        -0.97597
C         16.04972        19.22462        -0.88901
C         17.27213        18.50404        -1.37929
C         18.54690         2.03147        -0.50640
C         18.54868         3.50405        -0.55287
C         19.71532         1.32536        -0.64331
C         19.73794         4.21803        -0.75498
C         18.52304         6.34697        -0.78914
C         18.50187         7.78709        -0.90409
C         19.76419         5.64385        -0.81224
C         19.73444         8.49992        -0.82679
C         18.47643        10.63351        -0.83148
C         18.46738        12.05658        -0.74295
C         19.72139         9.92466        -0.77968
C         19.69471        12.77376        -0.59403
C         18.42730        14.91297        -0.59150
C         18.40902        16.35559        -0.65426
C         19.67656        14.19565        -0.49691
C         19.64295        17.11598        -0.38068
C         18.54947        19.22359        -1.05865
C         19.69677        18.56797        -0.69782
C         20.99264         1.99905        -1.07755
C         21.00977         3.46997        -0.71704
C         22.28217         1.33218        -0.66787
C         22.28279         4.20742        -0.87619
C         20.98628         6.37702        -0.89889
C         20.97936         7.78104        -0.81769
C         22.27728         5.67636        -1.25519
C         22.22000         8.50635        -0.67423
C         20.95211        10.63810        -0.62895
C         20.93658        12.06363        -0.52751
C         22.19247         9.92086        -0.53332
C         22.15093        12.77929        -0.29843
C         20.90704        14.88477        -0.31371
C         20.91900        16.36421        -0.20128
C         22.11389        14.19196        -0.17025
C         22.18601        17.06231        -0.64716
C         20.95199        19.24396        -0.53725
C         22.17130        18.56028        -0.42410
C         23.47862         1.99371        -0.75068
C         23.53407         3.43402        -1.22901
C         24.73600         1.33740        -0.52148
C         24.75821         4.19269        -0.75507
C         23.51942         6.36204        -0.72361
C         23.45839         7.79299        -0.52382
C         24.70875         5.64270        -0.59856
C         24.61811         8.49195        -0.13985
C         23.40945        10.63770        -0.27746
C         23.39201        12.05792        -0.16238
C         24.62743         9.91217        -0.07030
C         24.61012        12.75718         0.08221
C         23.31090        14.94796         0.36531
C         23.42064        16.37965        -0.12478
C         24.61712        14.20359         0.22579
C         24.59906        17.06527        -0.06130
C         23.39663        19.22924        -0.29233
C         24.64553        18.52825        -0.21773
C         25.93780         2.03858        -0.49424
C         25.92297         3.49726        -0.54550
C         27.18477         1.35044        -0.29990
C         27.24201         4.23059        -0.57679
C         25.92602         6.31382        -0.15851
C         25.81284         7.72374         0.26829
C         27.14396         5.66535        -0.10458
C         27.07532         8.45970         0.64958
C         25.84396        10.62528         0.18117
C         25.81710        12.02632         0.20312
C         27.10083         9.93367         0.48132
C         27.07426        12.75093         0.61006
C         25.79088        14.91378         0.35008
C         25.83596        16.36453         0.26984
C         27.10325        14.20638         0.13975
C         27.03520        17.04331         0.32322
C         25.86060        19.18407        -0.20064
C         27.16395        18.43432        -0.24393
C         28.36912         2.01403        -0.01713
C         28.33226         3.50745         0.21988
C         29.57939         1.33576         0.28790
C         29.68378         4.17975        -0.00715
C         28.37656         6.34085         0.27651
C         28.36567         7.73845         0.56888
C         29.60689         5.64638         0.35563
C         29.56399         8.43649         0.77677
C         28.29135        10.59278         0.60813
C         28.37043        12.03844         0.18904
C         29.51106         9.90299         1.16625
C         29.57388        12.78834         0.73693
C         28.25428        14.87735         0.84891
C         28.23684        16.37740         0.85510
C         29.53074        14.14347         0.95059
C         29.51950        17.09031         0.93829
C         28.32843        19.17750         0.33917
C         29.49564        18.51701         0.75233
C         30.72801         2.02186         0.68964
C         30.79957         3.42681         0.67638
C         31.95478         4.15348         1.04132
C         30.80839         6.31738         0.69588
C         30.80128         7.74792         0.82725
C         31.98165         5.53774         0.98408
C         32.00958         8.51135         0.97920
C         30.81030        10.65647         0.93801
C         30.81370        12.05053         0.89135
C         32.01290         9.88470         0.98702
C         32.02188        12.86065         0.98708
C         30.68952        14.89436         1.58400
C         30.70244        16.39993         1.26231
C         31.98239        14.17968         1.27491
C         31.87253        17.15562         1.46052
C         30.70519        19.23798         1.00293
C         31.86086        18.55743         1.34043
O         10.17725         7.98730        -1.56883
O         16.03823         6.69437        -2.22470
O         27.90103        15.57522         2.08128
O          9.39432         6.04804         1.47680
O          7.16872        12.59928         2.14854
O          4.40691        10.32949         2.50591
O         26.17255         7.95855         1.69070
O         21.81390         3.86603         0.45813
O         12.41204         4.97226         1.52098
O         20.23183        16.87165         0.96955
O          6.34580        16.79603         2.25832
H          5.57196        16.34706         2.66215
O         14.46079        12.74566         0.83591
H         15.24083        13.13480         1.28461
O         27.49218        18.22922        -1.68656
H         26.75909        17.70621        -2.07611
O         16.28021         3.50752         1.56774
H         15.48360         3.08997         1.95992
O          3.34035         3.65468        -1.41366
H          2.50855         3.16152        -1.57843
O         10.86351        15.85116        -2.18392
O          8.87154        14.26461        -1.93138
H          9.26409        14.95282        -2.52167
O         22.33912         5.76503        -2.71363
H         22.85923         4.99174        -3.04309
O         22.20375        16.86479        -2.10373
H         22.93240        17.41016        -2.46848
O          9.53296        14.93898         1.59438
H          8.95304        15.26214         2.31625
O         23.64056         3.38820        -2.68905
H         24.43716         2.86063        -2.91132
O         29.33510         9.91622         2.62563
H         28.48037         9.47800         2.82762
O          8.55413         3.71210        -1.95560
H          9.23555         3.11621        -2.33338
O         13.48372        15.04278        -2.84334
H         12.59993        15.41236        -3.08287
O         27.37654        14.31244        -1.29067
H         26.58818        13.97934        -1.77018
O         28.50605        11.98040        -1.25363
H         28.52154        12.90909        -1.58867
O          7.81344         8.43251         2.35547
H          7.13017         8.91151         2.87048
O         14.14393         8.29905        -2.56746
H         14.64042         7.55710        -2.99031
O         30.48427        14.82021         3.02895
H         29.54539        15.07946         3.18563
O         23.05158        15.05795         1.80938
H         23.73026        15.65525         2.18980
O         28.02955         3.68666         1.62569
H         27.16469         3.26382         1.81011
O          4.99367        18.40614        -1.69333
H          4.15033        17.96015        -1.92426
O         27.60200         4.24432        -1.98637
H         26.94871         4.80459        -2.45423
O         30.02702         4.10234        -1.42081
H         30.90074         4.53104        -1.53417
O         13.70820        12.17563        -2.68967
H         13.02172        11.63546        -3.13304
O         17.17487        18.50348        -2.85984
H         16.35912        18.01090        -3.09562
O         20.95490         1.97823        -2.54901
H         20.94100         1.04095        -2.83495
O         14.03656         8.38041         1.07222
H         13.39815         8.01693         1.72176
O         27.08849        12.76161         2.05669
H         26.30450        13.25896         2.37096
H          0.45120         1.51626         1.27058
H          0.42715         3.97714         1.43458
H          2.53014         0.28589         0.71900
H          0.29430         5.92376         1.04909
H          0.31826         8.35798         1.18333
H          0.35341        10.25655         0.63857
H          0.36871        12.67977         0.62958
H          0.37003        14.59708         0.69050
H          0.39375        17.04487         0.46097
H          1.62308        19.19539         0.44896
H          4.93922         0.33299         0.27829
H          3.72921        20.42546         0.03842
H          7.32440         0.33301        -0.05814
H          6.23835        20.43806         0.03692
H          9.79961         0.29555        -0.12635
H          8.73235        20.44881        -0.02242
H         12.30293         0.28285        -0.29868
H         11.22052        20.38719        -0.24772
H         14.78775         0.26695        -0.48092
H         13.65574        20.33802        -0.39678
H         17.26361         0.25621        -0.54971
H         16.07438        20.31977        -0.78583
H         19.68499         0.22340        -0.63838
H         18.58229        20.30466        -1.26474
H         22.26888         0.26462        -0.39435
H         20.95901        20.34493        -0.56020
H         24.74031         0.25049        -0.34784
H         23.40715        20.32874        -0.24418
H         27.17812         0.24983        -0.34332
H         25.88471        20.28109        -0.28761
H         29.59407         0.23585         0.25017
H         28.33319        20.27607         0.27207
H         31.60935         1.44698         1.01387
H         32.84403         3.60930         1.39445
H         32.90689         6.05305         1.27528
H         32.97444         7.98686         1.00877
H         32.98238        10.40288         0.99650
H         32.99914        12.37696         0.84218
H         32.93011        14.72960         1.36866
H         32.81065        16.66096         1.74543
H         30.71189        20.33164         0.89276
H         32.79032        19.11614         1.52031
