         640
 CSIRO Nanostructure Databank - Neutral Graphene Oxide Data Set
C         23.02657        27.34822        -0.57872
C         23.06396        28.62649        -1.10358
C         23.30543        31.19540        -2.55282
C         23.45632        32.42488        -3.16920
C         23.42131        36.35500        -3.22558
C         23.25356        37.60767        -2.66496
C         23.00791        40.30808        -1.41258
C         22.94963        41.53100        -0.83595
C         22.99953        44.37285         0.43493
C         22.95913        45.70298         0.63492
C         25.39779        24.70603         0.67796
C         24.21349        25.34700         0.30669
C         25.46761        27.30229        -0.48470
C         24.23060        26.65277        -0.27113
C         25.50225        28.65967        -0.88647
C         24.29362        29.31633        -1.25289
C         25.54177        31.44023        -1.58479
C         24.36669        30.66316        -1.78692
C         25.60265        32.79603        -2.01745
C         24.58216        33.22070        -2.87980
C         25.59735        36.07662        -2.10524
C         24.57575        35.59792        -2.92741
C         25.52585        37.46229        -1.74526
C         24.32448        38.20751        -1.96369
C         25.46356        40.26095        -1.30229
C         24.27248        39.59331        -1.56108
C         25.42392        41.76820        -1.24920
C         24.20521        42.23677        -0.47594
C         25.46374        44.43704        -0.19762
C         24.23357        43.66218         0.03849
C         25.42321        45.89731        -0.11743
C         24.11017        46.57650         0.31379
C         25.42733        48.56777         0.91341
C         24.24998        47.88675         0.95172
C         27.91870        23.17039         0.90263
C         27.89888        24.56390         0.67370
C         26.65463        25.25005         0.39674
C         27.91584        27.38105        -0.01975
C         26.74723        26.51873        -0.40060
C         27.92153        28.70258        -0.41620
C         26.74961        29.37549        -0.90846
C         27.94012        31.54865        -1.05398
C         26.76123        30.79176        -1.13255
C         27.87807        33.03398        -0.75595
C         26.60827        33.70563        -1.35697
C         27.85696        35.94099        -0.78978
C         26.61241        35.22013        -1.39912
C         27.94542        37.41197        -1.16570
C         26.71990        38.13970        -1.34848
C         27.92983        40.28391        -1.17443
C         26.71537        39.56880        -1.27944
C         27.93278        41.70213        -0.98046
C         26.71224        42.40235        -0.81143
C         27.90340        44.55951        -0.50738
C         26.68918        43.80089        -0.48589
C         27.91406        45.93747        -0.18188
C         26.68275        46.63059         0.06358
C         27.90309        48.72426         0.47904
C         26.66258        47.98374         0.43590
C         27.93466        50.10878         0.77925
C         30.33681        23.19830         1.13774
C         29.11611        22.51035         1.15186
C         30.34555        24.59915         0.90281
C         29.13153        25.27796         0.68055
C         30.39752        27.48300         0.48238
C         29.07795        26.79096         0.73885
C         30.43034        28.79546         0.02541
C         29.21444        29.38962        -0.57033
C         30.50206        31.59880        -0.92748
C         29.21749        30.83871        -1.00017
C         30.46197        33.09653        -1.03217
C         29.16195        33.81806        -1.04942
C         30.40766        35.95030        -0.95155
C         29.16239        35.19038        -1.00467
C         30.40327        37.36646        -0.98127
C         29.15961        38.08313        -1.13917
C         30.43838        40.28034        -1.03001
C         29.20454        39.55603        -1.50303
C         30.40260        41.70534        -0.89662
C         29.17404        42.40872        -0.91905
C         30.40801        44.58496        -0.55934
C         29.15300        43.91117        -1.04298
C         30.39425        45.97153        -0.28183
C         29.14656        46.66920        -0.11543
C         30.37172        48.78985         0.26692
C         29.13821        48.05807         0.20394
C         30.36824        50.17402         0.58001
C         29.12325        50.81046         0.82568
C         32.81355        20.39995         1.78239
C         31.66449        21.02823         1.49778
C         32.85625        23.13511         0.92838
C         31.61757        22.53346         1.60626
C         32.81183        24.64332         1.05607
C         31.62304        25.33063         0.95632
C         32.81841        27.49413         0.81222
C         31.62912        26.78633         0.81815
C         32.79306        28.99562         0.81125
C         31.62183        29.59380         0.07719
C         32.87586        31.70916        -0.11736
C         31.67578        30.93288        -0.31322
C         32.86584        33.14984        -0.31460
C         31.68052        33.84157        -0.65423
C         32.87187        35.99092        -0.66809
C         31.64937        35.25587        -0.76168
C         32.85334        37.40543        -0.84165
C         31.64346        38.09737        -0.94224
C         32.86221        40.27782        -0.71603
C         31.64230        39.56647        -0.92139
C         32.85292        41.71125        -0.61583
C         31.63357        42.42897        -0.70611
C         32.85074        44.55482        -0.32783
C         31.62606        43.85803        -0.54035
C         32.86256        45.98840        -0.18473
C         31.62344        46.69031        -0.14183
C         32.83556        48.83529         0.02224
C         31.61951        48.10874         0.04924
C         32.83262        50.25308         0.27321
C         31.61667        50.90746         0.62087
C         32.86976        52.97434         0.94453
C         31.67670        52.27701         0.97409
C         35.43594        18.97104         2.28416
C         35.39867        20.43423         2.27794
C         34.04518        21.18100         2.06889
C         35.33987        23.19786         1.45458
C         34.12685        22.53487         1.51925
C         35.34337        24.57164         0.81200
C         34.09815        25.34201         1.19903
C         35.36818        27.51665         0.65978
C         34.10982        26.83856         1.05635
C         35.31440        28.90423         0.41435
C         34.09773        29.62769         0.41968
C         35.32235        31.76560         0.46211
C         34.07283        31.02488         0.20402
C         35.29796        33.27010         0.36594
C         34.05929        33.92241        -0.11546
C         35.30302        36.08975         0.04952
C         34.07801        35.29576        -0.35223
C         35.38205        37.44420        -0.59083
C         34.14667        38.12796        -1.11245
C         35.31993        40.25331        -0.57129
C         34.11757        39.58611        -0.72294
C         35.34167        41.67843        -0.10318
C         34.07135        42.42681        -0.41740
C         35.34148        44.52122        -0.08080
C         34.06326        43.81412        -0.30363
C         35.35844        46.01519        -0.00773
C         34.07600        46.72145        -0.11367
C         35.31327        48.85123        -0.28294
C         34.08692        48.13914        -0.14126
C         35.24469        50.35784        -0.45803
C         34.04542        50.99000         0.21106
C         35.33071        53.12563         0.43854
C         34.07463        52.35921         0.51482
C         35.34586        54.51151         0.70023
C         37.84876        18.99737         1.85222
C         36.59717        18.30717         2.07564
C         37.85890        20.40853         1.77560
C         36.63023        21.15612         1.92935
C         37.87558        23.31665         1.75746
C         36.58746        22.53230         1.69574
C         37.82528        24.70845         1.16803
C         36.62078        25.36871         0.96711
C         37.84627        27.46286         0.55445
C         36.59939        26.78361         0.68602
C         37.87987        28.88176         0.16600
C         36.55990        29.63503         0.08354
C         37.81687        31.77714         0.41691
C         36.60453        31.07797         0.31308
C         37.79295        33.21809         0.41379
C         36.60099        33.94630         0.21885
C         37.83751        36.03455        -0.16817
C         36.60632        35.33350        -0.02760
C         37.84748        37.43469        -0.45393
C         36.57620        38.11606        -0.65091
C         37.78197        40.26721        -0.76316
C         36.58206        39.57125        -0.73108
C         37.79293        41.71042        -0.67450
C         36.61046        42.39225        -0.49280
C         37.86001        44.55122        -0.12953
C         36.58345        43.88437        -0.65781
C         37.82132        46.04504        -0.40580
C         36.62382        46.73699        -0.28442
C         37.79630        48.87779        -0.53971
C         36.57059        48.17827        -0.39725
C         37.75936        50.37463        -0.76759
C         36.57880        50.97295         0.03349
C         37.77622        53.20111         0.28526
C         36.56304        52.48748         0.15688
C         37.78035        54.53513         0.76259
C         36.53978        55.19215         0.88834
C         40.30087        16.14911         1.77961
C         39.11520        16.83798         1.85295
C         40.28619        18.96083         1.44852
C         39.07193        18.25887         1.71986
C         40.26826        20.36243         1.25576
C         39.07974        21.10478         1.44930
C         40.30651        23.23243         1.10878
C         39.09089        22.52817         1.33268
C         40.30767        24.67571         1.03302
C         39.07659        25.39366         1.02451
C         40.32108        27.51541         0.64022
C         39.07077        26.79441         0.74645
C         40.33373        28.92908         0.55737
C         39.10210        29.66452         0.42546
C         40.34395        31.74945         0.95424
C         39.07166        31.05360         0.48359
C         40.35612        33.25961         0.71591
C         39.05109        33.97762         0.50136
C         40.30245        36.03904        -0.13764
C         39.07320        35.35930        -0.00006
C         40.29871        37.43189        -0.46417
C         39.05983        38.11262        -0.61334
C         40.31021        40.28872        -0.88154
C         39.03726        39.52729        -1.14363
C         40.29264        41.71282        -0.88974
C         39.06131        42.43922        -0.78830
C         40.29063        44.56784        -0.75439
C         39.08325        43.83407        -0.65203
C         40.25376        46.00512        -0.79601
C         39.05572        46.73755        -0.65034
C         40.25827        48.90991        -0.57012
C         39.03762        48.19129        -0.64629
C         40.30771        50.30603        -0.23208
C         39.07466        51.10982        -0.45779
C         40.40161        53.19022         0.40895
C         39.07584        52.54774        -0.04445
C         40.22153        54.41894         1.26583
C         39.02068        55.14299         1.26939
C         40.12913        56.94464         2.48643
C         38.99493        56.41355         1.91046
C         42.77440        16.13459         1.62298
C         41.53552        16.83815         1.59045
C         42.77906        18.94227         1.27293
C         41.53167        18.23991         1.40469
C         42.78762        20.34842         1.06516
C         41.49584        21.04176         0.71382
C         42.76010        23.21399         0.83369
C         41.52596        22.52634         0.95003
C         42.76814        24.64313         0.75290
C         41.53889        25.36770         0.81243
C         42.78900        27.48219         0.46932
C         41.54746        26.78894         0.65452
C         42.80199        28.91324         0.38162
C         41.58299        29.63724         0.48336
C         42.79683        31.76411         0.26515
C         41.59613        31.05396         0.47830
C         42.79401        33.20609         0.13788
C         41.58757        33.93536         0.24767
C         42.78175        36.02058        -0.27196
C         41.55438        35.32208        -0.04094
C         42.76435        37.45067        -0.50284
C         41.54172        38.14135        -0.60755
C         42.76259        40.29741        -0.81035
C         41.52107        39.58177        -0.78686
C         42.76184        41.72269        -0.85787
C         41.52556        42.43696        -0.86394
C         42.77397        44.57140        -0.81291
C         41.52657        43.86132        -0.85246
C         42.79255        45.98978        -0.80085
C         41.52674        46.69919        -1.00814
C         42.77178        48.81249        -0.27123
C         41.53310        48.22539        -0.77815
C         42.62771        50.01484         0.63069
C         41.43986        50.88251         0.30706
C         42.65777        52.81746         1.44333
C         41.32544        52.17033         1.09892
C         42.62534        54.17537         1.90524
C         41.38932        54.92704         1.89475
C         42.53701        56.77500         3.04535
C         41.34709        56.21798         2.49061
C         43.96766        16.81024         1.53711
C         45.25002        18.94816         1.30801
C         44.00655        18.22742         1.37980
C         45.24767        20.35645         1.11531
C         44.00103        21.05811         0.99397
C         45.22945        23.19192         0.67653
C         44.00019        22.49115         0.81986
C         45.21572        24.59446         0.47271
C         44.00465        25.32908         0.53142
C         45.25231        27.47477         0.25685
C         44.00261        26.75974         0.39111
C         45.25948        28.91613         0.17596
C         44.03215        29.62748         0.23125
C         45.25166        31.76596        -0.10377
C         44.02625        31.05350         0.12606
C         45.25314        33.17430        -0.21857
C         44.01687        33.90092        -0.11124
C         45.30789        36.05159        -0.18204
C         43.99956        35.31152        -0.24407
C         45.23920        37.46640        -0.69220
C         44.01239        38.15533        -0.67423
C         45.22043        40.29933        -0.88097
C         43.99282        39.58555        -0.80934
C         45.22605        41.72376        -0.87895
C         43.99594        42.43611        -0.84681
C         45.23556        44.57847        -0.69319
C         44.00351        43.86300        -0.79963
C         45.23969        45.99519        -0.55224
C         43.99994        46.70959        -0.65396
C         45.25045        48.90451        -0.23176
C         43.96445        48.12630        -0.36751
C         45.11733        50.11794         0.66915
C         43.92550        50.75679         0.85682
C         45.08675        52.74537         1.82481
C         43.85689        52.10469         1.42213
C         45.06134        54.07997         2.32234
C         43.80468        54.78886         2.39698
C         43.72666        56.09568         2.97123
C         47.68848        18.96948         1.39270
C         46.50072        18.27939         1.43846
C         47.72266        20.37532         1.18520
C         46.48768        21.07424         1.02299
C         47.72521        23.18046         0.67247
C         46.48666        22.47750         0.76722
C         47.74734        24.58306         0.41168
C         46.47095        25.28369         0.01024
C         47.71492        27.51147         0.30636
C         46.45247        26.76894         0.25429
C         47.72286        28.94325        -0.03685
C         46.48550        29.63263        -0.03680
C         47.70914        31.72415        -0.52610
C         46.48372        31.04416        -0.22100
C         47.70315        33.13207        -0.75751
C         46.47756        33.87169        -0.56663
C         47.62790        35.94948        -1.34735
C         46.46866        35.25547        -0.70043
C         47.67971        37.43379        -1.09740
C         46.46119        38.15020        -0.94365
C         47.65451        40.30713        -1.14255
C         46.45385        39.59094        -0.98096
C         47.68573        41.72313        -1.02437
C         46.46240        42.43480        -0.87173
C         47.69534        44.53713        -0.51007
C         46.46733        43.85368        -0.70626
C         47.68908        45.93790        -0.20720
C         46.46983        46.67403        -0.25211
C         47.68131        48.72451         0.35437
C         46.49486        48.07943         0.01593
C         47.65529        50.23227         0.56494
C         46.37507        50.60035         1.34758
C         47.51591        52.65254         2.16631
C         46.32314        52.04987         1.74970
C         47.47999        53.98858         2.63307
C         46.28565        54.67795         2.71356
C         50.21863        20.44396         1.34346
C         48.96992        21.09107         1.13524
C         50.20812        23.19574         0.78272
C         48.96639        22.49020         0.87186
C         50.20508        24.59835         0.53181
C         48.96058        25.26663         0.36430
C         50.24918        27.43148        -0.04721
C         48.99566        26.74338         0.30004
C         50.19555        28.83075        -0.61307
C         48.93452        29.61432        -0.30829
C         50.17093        31.61656        -1.21065
C         48.92377        30.98214        -0.62358
C         50.18225        33.12714        -1.10917
C         48.94219        33.83420        -1.00400
C         50.15627        35.96205        -1.26005
C         48.94368        35.24278        -1.13771
C         50.14081        37.40375        -1.36118
C         48.90250        38.10348        -1.30711
C         50.19368        40.33335        -1.54297
C         48.87054        39.56553        -1.48917
C         50.17636        41.75484        -1.11506
C         48.93348        42.43123        -0.94038
C         50.14980        44.48500        -0.29500
C         48.92637        43.81453        -0.58662
C         50.13983        45.86517         0.08848
C         48.91210        46.59663         0.11986
C         50.13735        48.62632         0.79300
C         48.91541        47.99319         0.43811
C         50.19271        50.14022         0.94161
C         48.86711        50.75079         1.29964
C         49.93545        52.37044         2.76298
C         48.78549        51.90796         2.06955
C         51.41320        21.13060         1.26775
C         52.68696        23.23803         0.78565
C         51.44841        22.51640         0.96837
C         52.65412        24.62543         0.44612
C         51.43748        25.32142         0.39926
C         52.70359        27.51936         0.32244
C         51.42210        26.75161         0.12044
C         52.68004        28.93212        -0.19854
C         51.46820        29.61427        -0.38537
C         52.67545        31.68273        -0.87266
C         51.46240        30.98380        -0.72749
C         52.65809        33.05485        -1.52565
C         51.38382        33.82700        -1.24587
C         52.63982        35.98171        -1.37437
C         51.39944        35.25375        -1.28525
C         52.64064        37.38724        -1.36169
C         51.38839        38.12433        -1.38107
C         52.67450        40.25645        -1.37508
C         51.41025        39.52814        -1.39069
C         52.66384        41.76373        -1.10285
C         51.37507        42.42420        -0.83519
C         52.61242        44.43550        -0.07131
C         51.37885        43.77532        -0.38029
C         52.59696        45.79363         0.33391
C         51.36100        46.51139         0.41217
C         52.58809        48.51738         1.15326
C         51.34722        47.89099         0.81240
C         52.60778        49.83265         1.88611
C         51.30824        50.58517         1.84493
C         51.14977        51.66476         2.68568
C         55.15246        23.29286         0.76516
C         53.94480        22.60806         0.94974
C         55.19486        24.61107         0.31169
C         53.90371        25.26253        -0.12108
C         55.13806        27.43663        -0.25619
C         53.94468        26.76355        -0.03612
C         55.15436        28.86905        -0.43503
C         53.90996        29.60383        -0.41289
C         55.17790        31.70200        -0.83627
C         53.88783        30.98473        -0.74073
C         55.20314        33.18038        -1.04070
C         53.91327        33.87170        -1.30196
C         55.16855        35.97445        -1.46857
C         53.90057        35.24411        -1.37167
C         55.13684        37.40850        -1.34438
C         53.89711        38.10802        -1.27820
C         55.12190        40.23890        -0.94411
C         53.92089        39.51685        -1.16462
C         55.11078        41.65587        -0.63566
C         53.89979        42.37957        -0.59494
C         55.07882        44.37280         0.21604
C         53.86165        43.72448        -0.14953
C         55.05729        45.76808         0.56494
C         53.83628        46.46455         0.60911
C         55.05300        48.58660         1.08576
C         53.81274        47.85950         0.96797
C         54.97081        50.03440         1.18817
C         53.80684        50.65644         1.47929
C         57.67823        24.63381         0.00984
C         56.41996        25.30630         0.01248
C         57.56711        27.34342        -0.75157
C         56.37992        26.68223        -0.34257
C         57.53482        28.72738        -1.11273
C         56.35126        29.51360        -0.87991
C         57.47186        31.50707        -1.83671
C         56.38422        30.90610        -1.13154
C         57.44261        32.89889        -2.22276
C         56.55312        33.84844        -1.39645
C         57.54099        36.12822        -2.01970
C         56.36525        35.32073        -1.78225
C         57.58155        37.48662        -1.58454
C         56.35326        38.14075        -1.26099
C         57.59432        40.24547        -0.80668
C         56.35316        39.53948        -0.98350
C         57.59005        41.60529        -0.39296
C         56.32683        42.31040        -0.26150
C         57.54240        44.27750         0.73922
C         56.29735        43.64924         0.16965
C         57.51734        45.78701         0.72240
C         56.30180        46.47593         0.77859
C         57.54153        48.58838         1.09901
C         56.28357        47.90646         0.97732
C         58.82454        25.26230        -0.42303
C         59.94009        27.26477        -1.38145
C         58.79018        26.61757        -0.84976
C         59.86460        28.55804        -1.84540
C         58.66127        29.31697        -1.72547
C         59.51862        31.14511        -3.15564
C         58.56386        30.66623        -2.23020
C         59.41770        32.43163        -3.63469
C         58.44466        33.31256        -3.10288
C         59.85250        36.41153        -2.82225
C         58.66936        35.67092        -2.74270
C         59.94735        37.64301        -2.17606
C         58.80513        38.22288        -1.59520
C         60.03162        40.27765        -0.86779
C         58.82468        39.57856        -1.07524
C         60.02983        41.59350        -0.43245
C         58.82315        42.29238        -0.19720
C         59.98700        44.44182         0.27799
C         58.82668        43.68199         0.21292
C         59.96858        45.80819         0.62606
C         58.75619        46.49571         0.80578
C         58.72825        47.91506         1.00512
O         34.21834        26.17302         2.38799
O         30.75076        32.25320        -2.22348
O         25.91428        34.48746        -0.31859
O         24.68424        34.39240        -3.62310
O         34.63190        21.00852         3.38730
O         49.44509        40.02750        -2.76384
O         35.44812        45.15403         1.22907
O         39.72231        33.94002         1.85563
O         55.27211        32.64052         0.34403
O         37.24240        29.16629        -1.13102
O         35.18256        32.61232         1.67612
O         29.36232        29.75220        -1.99221
O         39.22588        52.18170        -1.47245
O         48.46492        27.28108         1.59461
O         24.49903        46.53018        -1.09064
O         52.77914        41.25067        -2.46974
O         58.57023        34.59592        -3.61646
O         24.45111        42.46797         0.92899
O         50.12305        28.67751        -2.04076
O         41.60680        47.64229        -2.12328
O         31.74268        22.87691         3.01412
H         31.02839        22.42384         3.50766
O         46.45407        25.17104        -1.47534
H         45.60811        25.55710        -1.78928
O         29.30738        39.58068        -2.98560
H         28.51526        39.11963        -3.33586
O         47.66047        50.86989        -0.74132
H         46.93221        50.45556        -1.27766
O         47.37433        35.83869        -2.81031
H         48.15177        36.22313        -3.27045
O         36.78957        50.49872         1.39303
H         36.08246        50.87182         1.96066
O         37.54992        50.50968        -2.19628
H         37.97585        51.35916        -2.46873
O         35.19416        24.34431        -0.63798
H         36.02904        23.95053        -0.97040
O         27.77262        33.08467         0.69396
H         27.53054        34.01950         0.92609
O         38.96773        39.39192        -2.61646
H         39.77879        38.92007        -2.90325
O         25.20164        42.23066        -2.62880
H         26.02670        42.06971        -3.13438
O         29.11553        44.16591        -2.51579
H         29.13932        45.13927        -2.64031
O         37.95469        44.37116         1.30665
H         37.11288        44.71911         1.69829
O         45.46881        49.47412        -1.58823
H         44.61892        49.86089        -1.89241
O         35.37963        41.62009         1.37493
H         36.17147        41.09893         1.62829
O         41.38207        20.89842        -0.76805
H         42.18481        21.30906        -1.15600
O         27.04620        26.06676        -1.79445
H         27.13152        26.87350        -2.34760
O         41.11244        53.66646        -0.75887
H         40.73475        53.19640        -1.53992
O         52.62169        32.75656        -2.96479
H         51.79401        32.22814        -3.11870
O         52.82136        49.50080         3.30784
H         53.68227        49.03383         3.36875
O         35.10295        36.37499         1.48957
H         35.12068        35.51418         1.96244
O         27.67731        35.92764         0.66221
H         26.79654        36.31469         0.85550
O         40.69436        51.79481         2.35570
H         41.14549        50.97672         2.66994
O         42.31376        49.44234         1.96933
H         43.06376        48.86267         2.22579
O         52.79126        27.65028         1.80401
H         53.54482        28.24734         2.00132
O         57.52268        43.91311         2.18121
H         58.33054        44.29992         2.58218
O         50.15020        31.28660        -2.64326
H         50.13431        30.26871        -2.66377
O         46.46802        49.81915         2.58719
H         45.80281        50.17275         3.21449
O         32.81487        22.80332        -0.48075
H         33.57173        23.27812        -0.90336
O         40.36381        31.54522         2.40224
H         39.92182        32.33741         2.79402
O         35.00146        50.62772        -1.86185
H         35.82706        50.39756        -2.35934
O         32.58603        29.35684         2.23512
H         33.27188        28.88793         2.75849
O         38.09025        23.57105         3.20147
H         37.97262        22.71729         3.67058
O         36.49759        44.14909        -2.09069
H         37.23404        43.67480        -2.53235
O         34.27131        38.10527        -2.58316
H         35.09121        38.59166        -2.81665
O         50.49224        50.65359        -0.41791
H         49.62143        50.77159        -0.87288
O         45.58059        36.21262         1.27617
H         44.77587        36.60406         1.67951
O         28.78150        27.08517         2.15974
H         29.57593        26.83929         2.68121
O         57.31160        33.99541        -0.16045
H         56.84087        33.45177         0.52182
O         53.82605        24.97443        -1.57939
H         53.79892        23.99843        -1.67772
H         22.06069        26.85005        -0.41000
H         22.12081        29.13048        -1.35623
H         22.40191        30.59980        -2.73831
H         22.68978        32.81334        -3.85177
H         22.64786        35.91440        -3.86757
H         22.33104        38.17120        -2.85676
H         22.07288        39.78810        -1.66536
H         21.97965        41.99742        -0.61099
H         22.12635        43.75423         0.68785
H         22.04849        46.17548         1.03344
H         25.32746        23.74579         1.20998
H         23.24591        24.86776         0.51354
H         25.46382        49.56451         1.37397
H         23.38351        48.30667         1.48384
H         26.98278        22.59588         0.88372
H         26.99910        50.65205         0.96669
H         29.08865        21.43117         1.35711
H         29.08970        51.88429         1.05214
H         32.86242        19.30138         1.77676
H         30.76664        20.44492         1.24746
H         32.86119        54.03301         1.23504
H         30.76656        52.80953         1.28049
H         34.51800        18.41422         2.51613
H         34.40601        55.06383         0.82840
H         36.58486        17.21012         2.10300
H         36.49678        56.25140         1.17264
H         40.31385        15.05626         1.89997
H         38.19196        16.27232         2.03257
H         40.09834        57.94185         2.94862
H         38.06759        57.00065         1.93487
H         42.76416        15.04226         1.74821
H         42.49489        57.77132         3.50874
H         44.90248        16.23716         1.59013
H         44.62956        56.56483         3.38374
H         48.62428        18.40799         1.51021
H         46.53153        17.19315         1.59240
H         48.40816        54.49684         2.92666
H         46.30289        55.71343         3.07765
H         50.25079        19.37013         1.56948
H         49.87086        53.24706         3.42049
H         52.34706        20.57683         1.43316
H         51.99021        51.97496         3.32343
H         56.08622        22.75705         0.98781
H         53.99375        21.55926         1.27059
H         55.86725        50.63558         0.97891
H         53.75123        51.75309         1.53754
H         57.73050        23.57803         0.30854
H         57.55476        49.67354         1.26817
H         59.77518        24.71133        -0.46449
H         60.88575        26.70753        -1.44661
H         60.76226        29.02398        -2.27372
H         60.31766        30.48879        -3.52311
H         60.13352        32.82062        -4.37023
H         60.69717        36.01882        -3.40277
H         60.89415        38.19708        -2.21936
H         60.99514        39.77869        -1.03762
H         60.99461        42.09222        -0.26991
H         60.95634        43.99677         0.01286
H         60.91475        46.36619         0.66669
H         59.68205        48.45672         1.08446
