         257
 CSIRO Nanostructure Databank - Neutral Graphene Oxide Data Set
C        -11.28921         0.79001        -0.13254
C        -10.08419         1.60064        -0.45171
C         -8.78817         0.80986        -0.55860
C         -7.48909         1.54254        -0.35734
C         -6.38839         0.89164         0.48010
C         -5.05749         1.59933         0.24531
C         -3.75854         0.87340         0.20528
C         -2.55239         1.49119         0.86439
C         -1.22293         0.80031         0.68841
C          0.02890         1.48852         1.15287
C          1.27224         0.66497         1.43192
C          2.57818         1.40059         1.62822
C          3.82771         0.74587         1.07088
C          5.15604         1.41055         1.33996
C          6.45447         0.66396         1.07035
C          7.79863         1.29640         1.36384
C          9.26100         0.84325         1.18067
C         10.10275         1.47298         0.13209
C         11.18586         0.66948        -0.44786
C         -9.99871         3.06187        -0.20459
C         -8.80360         3.78062        -0.26940
C         -7.50717         3.04117        -0.31046
C         -6.32389         3.79395         0.25030
C         -5.07990         3.05755         0.60552
C         -3.73061         3.71201         0.56817
C         -2.59959         2.95225         1.22203
C         -1.31821         3.70053         1.56271
C         -0.02886         2.92623         1.66198
C          1.28997         3.67695         1.69395
C          2.59412         2.92631         1.74048
C          3.87291         3.67412         1.40348
C          5.16919         2.90248         1.38260
C          6.40924         3.58418         0.87037
C          7.84107         3.28914         1.40272
C          8.85850         3.66427         0.30097
C          9.92661         2.79758        -0.17541
C         -8.73611         5.20753        -0.19143
C         -7.51976         5.95789        -0.27110
C         -6.23740         5.19444        -0.26374
C         -4.90271         5.88406        -0.25653
C         -3.66369         5.17086         0.27285
C         -2.55124         5.95208         0.91106
C         -1.33585         5.22727         1.44928
C          0.00628         5.95145         1.38061
C          1.27919         5.15827         1.35643
C          2.47026         5.73050         0.62696
C          3.80801         5.04327         0.81370
C          4.90266         5.48096        -0.18020
C          6.26980         4.85660         0.10090
C          7.51527         5.77625         0.03394
C          8.70109         4.88940        -0.28179
C         -7.47195         7.34698        -0.33602
C         -6.21671         8.10510        -0.52437
C         -4.89383         7.38211        -0.43083
C         -3.63272         8.13365        -0.09007
C         -2.46771         7.41089         0.51380
C         -1.28287         8.06317         1.21701
C         -0.02449         7.35593         0.77567
C          1.20443         8.03958         0.26384
C          2.49479         7.20181         0.30207
C          3.88328         7.80708         0.36925
C          5.02772         6.99654        -0.10629
C          6.10162         7.58464        -0.96198
C          7.28684         6.90961        -0.95953
C         -6.16699         9.58878        -0.41139
C         -5.01131        10.27143        -0.34068
C         -3.67047         9.67780         0.05735
C         -2.46948        10.18522        -0.75278
C         -1.19853        10.07556        -0.37693
C          0.05310        10.39065        -0.08258
C          1.34759         9.58207         0.05153
C          2.23953         9.76298        -1.18903
C          3.56607         9.48856        -1.09700
C          4.62866         9.36711        -2.09500
C          5.76331         8.61478        -1.95512
C        -11.32883        -0.56609        -0.15073
C        -10.14325        -1.43404        -0.36813
C         -8.82941        -0.69610        -0.40999
C         -7.66202        -1.41220         0.18216
C         -6.39172        -0.65567         0.44147
C         -5.12489        -1.37951         0.06165
C         -3.82221        -0.62564        -0.01716
C         -2.51950        -1.38197        -0.02631
C         -1.24435        -0.68654         0.37115
C         -0.01538        -1.52383         0.65731
C          1.28152        -0.81009         1.00750
C          2.55966        -1.49243         0.63088
C          3.79981        -0.65119         0.53264
C          5.09228        -1.39682         0.29089
C          6.38653        -0.67110         0.38372
C          7.66113        -1.45364         0.45395
C          8.74962        -0.90841        -0.41597
C         10.07614        -1.56769        -0.34791
C         11.21398        -0.68555        -0.60706
C        -10.12773        -2.90425        -0.04655
C         -8.98324        -3.63873         0.02520
C         -7.68069        -2.93966         0.20007
C         -6.37653        -3.68201         0.19319
C         -5.13865        -2.89881        -0.14706
C         -3.83342        -3.58633        -0.35448
C         -2.56605        -2.90684         0.17322
C         -1.29554        -3.50112        -0.45175
C          0.00332        -2.89456         0.02660
C          1.27603        -3.44596        -0.56999
C          2.56352        -2.74537        -0.23253
C          3.82421        -3.57586        -0.08182
C          5.09586        -2.90005         0.36874
C          6.37850        -3.63447         0.37537
C          7.65467        -2.96384         0.61417
C          8.97074        -3.74725         0.42316
C         10.10948        -2.92106        -0.17839
C         -9.01145        -5.18185         0.03260
C         -7.66122        -5.92905         0.07870
C         -6.35325        -5.19360         0.09523
C         -5.04689        -5.86682        -0.24107
C         -3.78206        -5.08185        -0.36763
C         -2.57294        -5.69764        -1.00952
C         -1.29637        -4.88779        -1.02576
C         -0.02575        -5.63171        -1.49667
C          1.30664        -4.88331        -1.10855
C          2.60615        -5.64689        -1.02015
C          3.91488        -4.94602        -0.68096
C          5.21060        -5.69981        -0.61621
C          6.48150        -5.01863        -0.14779
C          7.56568        -5.87979         0.59133
C          8.60299        -5.09208        -0.23876
C         -7.59859        -7.39208        -0.14444
C         -6.36844        -8.07713        -0.50109
C         -5.09225        -7.26861        -0.76561
C         -3.77246        -8.00570        -0.83566
C         -2.51211        -7.18174        -0.98996
C         -1.20058        -7.72951        -0.38830
C          0.01855        -7.15288        -1.15024
C          1.31244        -7.89782        -0.97856
C          2.62352        -7.15676        -1.11624
C          3.89244        -7.90960        -0.86957
C          5.04836        -7.16896        -0.17519
C          6.34653        -7.96061        -0.14998
C          7.49901        -7.33199         0.19261
C         -6.15594        -9.49645        -0.12608
C         -4.94144       -10.07500         0.02763
C         -3.67469        -9.44153        -0.41687
C         -2.32518        -9.97296        -0.07979
C         -1.18099        -9.24199        -0.21544
C          0.12915        -9.80586         0.08875
C          1.29884        -9.16850        -0.18547
C          2.61618        -9.72559         0.32956
C          3.75486        -9.42913        -0.67122
C          5.07395       -10.07265        -0.31887
C          6.24321        -9.41340        -0.20071
O          0.51061        -7.97404        -2.21685
O         -3.22357         4.19031        -0.71610
O         -6.90797        -5.74937         1.33811
O          7.18034         0.58747         2.35827
O         -0.33069         1.48254        -0.26258
O         -2.52281         7.63453        -0.91406
O          2.34508         6.17070        -0.74115
O         -3.78836        -9.04863        -1.84156
O          4.87334         7.37837         1.32347
O          0.86677         5.92106         2.54207
O         -7.11539         2.31607        -1.52112
O         -9.37188        -1.28359        -1.61980
O         -1.45198        -3.68631        -1.86377
O          4.16606        -3.50837         1.34258
O          8.47087        -0.06579        -1.26424
O          6.41406         3.58134        -0.60181
O         -0.80783         3.21488         2.84232
O          7.85301        -2.02637         1.75752
O          3.64814         0.49262        -0.36406
O          0.23472         7.43298        -0.64515
O          7.54547        -4.84149        -1.23930
O         -1.61821        -0.89832        -1.03985
O          2.04092        -1.61507         1.96727
O          2.17135        -5.00397        -2.26402
O         -1.10125        -7.15785         0.88211
O          1.98246         3.41258         2.95290
O         -1.32857         8.81732         2.17319
O          4.77515        -5.12930        -1.86565
O         -4.30301         1.51827        -0.98914
O          1.93842        -2.53463        -1.51115
O         -6.99822        -3.33999         1.44501
O         -4.60088        -3.15251        -1.49354
O         -5.43084         7.72757        -1.73243
O          4.13163         4.87952         2.20732
O          9.71129         0.06757         2.00500
O         -2.91703         1.94193         2.21031
O         -4.11197        -5.74521         0.88645
O          1.87862         0.80398         2.74280
O         -7.25336        -1.05113         1.54579
O         -2.34989         5.79154         2.34346
O         -2.62733        -6.47160        -2.24855
O          3.52858        -7.54133        -2.22152
O         -5.96189         3.57962         1.64435
O         -5.42150         5.25366        -1.46353
O         -4.63919        -0.82675        -1.19665
O         -0.10191        -2.73164         1.48357
O          8.11757         3.49812         2.61009
O          5.74475        -0.83369        -0.89983
O          4.02527         9.19140         0.19820
O          5.26302         2.11921         2.59941
O          4.77128        -7.05487         1.20247
O         -5.94512        -7.54602        -1.87010
O         -9.47685         1.23723        -1.74762
O          7.57425        -5.74739         1.99282
H          6.81792        -6.26939         2.34220
O         -9.66315        -5.64605        -1.14755
H        -10.45182        -5.09492        -1.32668
O          3.34696       -10.03727        -1.91264
H          3.28642        -9.31652        -2.58733
O          4.51190         5.09098        -1.50008
H          4.98313         4.25571        -1.72445
O          2.92837        -9.11573         1.57762
H          2.14847        -9.16691         2.16616
O         -0.13599        -5.56419        -2.91419
H          0.72868        -5.82454        -3.30383
O          9.50300        -4.06758         1.72295
H          9.35035        -3.29199         2.30887
O         -2.66514        -3.15650         1.58571
H         -1.75845        -3.16985         1.98292
O         -6.68829         1.26742         1.84468
H         -7.12432         0.51123         2.30283
O         -3.59094        10.04158         1.44059
H         -2.69463         9.84889         1.80966
O          7.70741         6.34627         1.34359
H          6.91134         6.86760         1.59120
O          1.99883        10.11328         1.21317
H          1.35438        10.14821         1.94985
H         12.14167        -1.14941        -0.97646
H         12.07156         1.23717        -0.77700
H         10.61343         3.25046        -0.91076
H          9.40915         5.21561        -1.06187
H          8.11171         7.21790        -1.62127
H          6.51008         8.71236        -2.76112
H          4.52839         9.96182        -3.01685
H          1.75936         9.97204        -2.15409
H          0.21897        11.44585         0.21737
H         -2.66940        10.38085        -1.82280
H         -5.04822        11.37143        -0.34456
H         -7.11271        10.13459        -0.55477
H         -8.41062         7.92027        -0.28066
H         -9.68382         5.76806        -0.15909
H        -10.94244         3.61068        -0.05640
H        -12.21030         1.33830         0.11943
H        -12.27399        -1.06800         0.10850
H        -11.10056        -3.42378        -0.08717
H         -9.60424        -5.51074         0.93966
H         -8.45907        -7.99445         0.18905
H         -7.05172       -10.04736         0.20075
H         -4.88846       -11.09744         0.43186
H         -2.25652       -11.03946         0.18929
H          0.16026       -10.78494         0.59549
H          2.51422       -10.84209         0.45863
H          5.07146       -11.17261        -0.27700
H          7.17106        -9.98037        -0.02368
H          8.43506        -7.90850         0.27056
H          9.47192        -5.64009        -0.66955
H         11.08490        -3.43542        -0.19513
