         280
 CSIRO Nanostructure Databank - Neutral Graphene Oxide Data Set
C         30.34535        31.49312        -0.74683
C         30.47307        32.73926        -0.71675
C         30.45093        35.97200        -0.37768
C         30.35383        37.15284        -0.00632
C         30.38233        40.28127         0.93922
C         30.36885        41.47798         1.33962
C         32.77016        28.84322        -0.72498
C         31.55746        29.20326        -0.88612
C         33.04735        31.54900        -0.22968
C         31.10623        30.39910        -0.28742
C         32.86471        33.03230        -0.23830
C         31.62059        33.65202        -1.03029
C         32.76066        35.80468        -0.39995
C         31.57957        35.10816        -0.60375
C         32.73289        37.33556        -0.40966
C         31.55916        37.93594         0.50797
C         32.82634        40.23310         0.28794
C         31.47697        39.45797         0.41013
C         32.91754        41.73308         0.38117
C         30.95355        42.68305         0.95024
C         32.56914        44.45663         1.35373
C         31.49577        43.85066         1.54054
C         35.59192        27.33977        -0.33565
C         35.28252        28.66453        -0.69915
C         34.08698        29.36306        -0.78316
C         35.28778        31.54531        -1.44809
C         34.07827        30.85031        -0.79176
C         35.28734        33.10322        -1.30207
C         34.09161        33.77208        -0.71789
C         35.31254        35.82341        -0.15184
C         34.03748        35.13617        -0.56757
C         35.26862        37.31655        -0.01461
C         34.04254        37.99874        -0.01954
C         35.21440        39.82323         0.97605
C         34.02562        39.35119         0.39720
C         35.21821        42.04023         1.23687
C         33.93972        42.57107         0.77983
C         35.14796        44.69401         1.18940
C         33.85974        44.09655         0.62626
C         35.37917        46.16789         0.88636
C         37.64675        27.70098         0.81749
C         36.60984        26.74476         0.11302
C         37.79949        28.89068        -0.11292
C         36.60173        29.38173        -0.93898
C         37.86629        31.30046        -1.44053
C         36.54547        30.90190        -0.80597
C         37.87820        33.42924        -1.70700
C         36.52657        33.99213        -1.47653
C         37.83663        35.83236        -0.26349
C         36.53117        35.44806        -1.01067
C         37.80491        37.32111         0.05044
C         36.51342        37.98007         0.21070
C         37.71010        40.17111         0.62315
C         36.48167        39.30462         0.69481
C         37.68332        41.69804         0.68200
C         36.44201        42.52306         0.87922
C         37.78304        44.62089         1.08620
C         36.46922        43.99731         0.53687
C         37.83905        46.09058         0.65111
C         36.52017        46.61735         0.69650
C         40.03996        25.36207         2.56551
C         39.05528        25.95849         2.07863
C         40.22840        27.66013         0.98422
C         38.93235        27.10923         1.26029
C         40.29572        28.74325        -0.08855
C         39.00362        29.52224        -0.27302
C         40.32234        31.55832        -1.28365
C         39.06347        30.79101        -1.02204
C         40.32842        33.10022        -1.33373
C         39.07264        33.90845        -1.24338
C         40.31633        35.97690        -0.28956
C         39.10649        35.42581        -1.01698
C         40.26107        37.25039         0.21234
C         38.98672        37.97768         0.29299
C         40.23718        40.15964         0.21512
C         39.02687        39.40662         0.83911
C         40.24303        41.62633         0.68201
C         38.98626        42.44241         0.68829
C         40.27258        44.57561         0.56110
C         39.03638        43.83043         0.71907
C         40.29534        45.97073         0.35816
C         39.01244        46.69455         0.30097
C         40.24974        48.62829        -0.48262
C         39.20564        48.02766        -0.16424
C         42.59217        25.55162         2.91982
C         41.41752        25.55469         2.00740
C         42.75105        27.64083         1.08313
C         41.40543        27.05164         1.42189
C         42.71798        29.10915         0.65508
C         41.49651        29.67378         0.01552
C         42.82494        31.65083        -0.81991
C         41.61548        30.76681        -1.07516
C         42.83039        33.00571        -0.76227
C         41.63170        33.89771        -1.11506
C         42.80583        35.90681        -0.01381
C         41.52133        35.07693        -0.09345
C         42.77806        37.20560         0.39498
C         41.49585        37.91931         0.80575
C         42.73811        40.13053         0.50103
C         41.55416        39.44012         0.51318
C         42.80535        41.59450         0.33424
C         41.55193        42.35112         0.58558
C         42.83685        44.53868         0.18514
C         41.52551        43.81602         0.29468
C         42.80745        46.00468         0.63086
C         41.53278        46.69820         0.13646
C         42.85673        48.57058        -0.54910
C         41.54161        48.03617        -0.32406
C         43.65813        26.18023         2.85970
C         45.15300        28.20239         1.99067
C         43.83089        27.49391         2.22737
C         45.28240        29.19091         0.88995
C         44.05406        29.64544         0.22415
C         45.41355        31.60105        -0.90700
C         44.09549        30.89640        -0.61192
C         45.39373        33.06668        -0.55581
C         44.05695        33.65907        -0.11276
C         45.35300        35.77964         0.32436
C         44.10462        35.17676        -0.36296
C         45.28373        37.31264         0.17798
C         44.02988        37.87773         0.96323
C         45.25665        40.07547         0.31362
C         44.02693        39.47342         0.98462
C         45.26010        41.53321         0.01120
C         44.00027        42.29496         0.20305
C         45.32336        44.39542        -0.02413
C         44.10805        43.74551         0.20231
C         45.37763        45.90469        -0.00032
C         44.16597        46.70938         0.31269
C         43.92147        48.06716        -0.16177
C         47.48105        27.93318         1.69232
C         46.46439        27.67797         2.37313
C         47.76716        29.03649         0.83863
C         46.53407        29.68770         0.45407
C         47.85232        31.58082        -0.39773
C         46.63395        30.92666        -0.28218
C         47.83983        32.98033        -1.00799
C         46.57824        33.74570        -0.56602
C         47.82236        35.86348        -0.15052
C         46.64687        35.16866        -0.22371
C         47.86326        37.35824         0.04912
C         46.58167        37.94656         0.60765
C         47.86973        40.09542         0.31594
C         46.57811        39.43091         0.62117
C         47.76550        41.42792        -0.39663
C         46.59955        42.24248         0.19682
C         47.69322        44.25733        -0.84735
C         46.55522        43.66629        -0.30413
C         47.42233        45.63357        -1.09472
C         46.54519        46.43731        -0.73309
C         50.29214        28.96312         0.49543
C         49.00628        29.54896         0.41309
C         50.36027        31.52624        -0.30065
C         49.08802        30.89839        -0.10632
C         50.36092        33.02127        -0.30163
C         49.14144        33.77279        -0.74792
C         50.39303        35.98843        -0.09997
C         49.13375        35.25683        -0.48931
C         50.37989        37.27950         0.42286
C         49.07876        37.94651         0.82473
C         50.33358        40.25902         0.52143
C         49.05129        39.45690         0.51608
C         50.25468        41.53274        -0.30982
C         49.07495        42.17148        -0.44637
C         50.28826        44.23883        -0.83715
C         48.97209        43.52788        -1.19634
C         51.41257        29.46236         0.22680
C         52.73557        31.67881        -0.21225
C         51.59713        30.81396        -0.15106
C         52.78695        32.90960        -0.39374
C         51.66348        33.82753        -0.20557
C         52.74252        36.15094        -0.20854
C         51.63385        35.28404        -0.35294
C         52.79778        37.23840         0.39635
C         51.64003        38.03275         0.91326
C         52.54660        40.14763        -0.35710
C         51.58248        39.40116         0.27544
C         52.73302        41.38403        -0.61668
C         51.51597        42.19862        -1.03996
C         51.37865        43.65543        -0.70192
O         40.41674        32.27915        -2.55974
O         37.62236        40.93665        -0.62792
O         31.79033        42.38767        -0.21380
O         41.00384        41.95072         1.89436
O         32.10666        30.89999         0.63721
O         44.01592        37.45410         2.30818
O         41.85709        30.03025         1.37866
O         37.83779        32.23983        -2.46312
O         45.14559        40.52908        -1.05361
O         48.97736        43.22250        -2.53522
O         45.15303        46.48284         1.33616
O         35.12115        40.83567         1.92103
O         49.33317        34.71031        -1.85322
O         35.60540        33.75985        -2.59448
O         46.59666        38.64195         1.87400
O         31.94838        39.93782        -0.86581
O         44.14108        29.58659        -1.25312
O         50.87167        33.48878         0.99268
O         44.16754        28.60898         3.01542
O         42.08092        44.20287        -1.02031
O         33.69283        44.44929        -0.73603
H         32.87232        44.01399        -1.06312
O         40.10166        40.15965        -1.21922
H         39.20771        40.51999        -1.44165
O         41.81279        30.05163        -2.32201
H         41.58619        30.67323        -3.05037
O         40.43612        27.98267        -1.31528
H         40.87026        28.56229        -1.99237
O         47.49052        41.11949        -1.77681
H         47.94678        41.80188        -2.34743
O         41.40379        37.75454         2.25328
H         42.35380        37.71224         2.58940
O         47.99266        37.86418        -1.30791
H         47.08737        37.90029        -1.70430
O         48.97911        37.70999         2.24512
H         48.15475        38.16686         2.56164
O         39.18234        39.34313         2.26697
H         39.99683        38.81420         2.48171
O         35.46590        35.31239         1.21576
H         34.58738        35.34482         1.65373
O         51.35214        42.01964        -2.40207
H         50.52347        42.53446        -2.68454
O         35.09557        44.47594         2.57123
H         35.96538        44.71906         2.97053
O         36.53453        31.30929         0.57377
H         37.08068        30.68425         1.10043
O         51.65897        38.14437         2.32466
H         50.73540        38.01970         2.66436
O         39.13073        36.00687        -2.33638
H         40.01788        35.83871        -2.72301
O         44.13240        39.89646         2.35805
H         44.20550        39.05050         2.88447
O         36.46949        36.26173        -2.19071
H         35.91390        35.79609        -2.85367
O         43.91569        33.33422         1.28402
H         44.48496        33.97532         1.79039
O         44.33886        35.32410        -1.79348
H         43.50719        35.06259        -2.27039
O         47.78910        32.78122        -2.43154
H         47.99264        33.64686        -2.85283
O         36.95026        28.16524         1.98282
H         36.97485        27.45488         2.65970
O         42.69134        45.98418         2.07254
H         43.59319        46.10542         2.45107
O         32.66543        33.41660         1.14232
H         32.20185        32.66865         1.58480
O         31.88454        33.60176        -2.42320
H         31.34622        34.27842        -2.88394
O         45.41376        35.42882         1.71882
H         44.89607        36.12915         2.23595
O         45.17506        37.70166        -1.19993
H         44.71375        36.98804        -1.71496
O         37.97753        35.09813         0.96654
H         37.22625        35.31720         1.56516
O         32.46863        37.60240        -1.79685
H         32.38272        38.57857        -1.92063
O         43.30827        26.90688        -0.03096
H         43.01655        25.96796         0.04375
O         41.68012        24.67250         0.93614
H         40.87201        24.58536         0.38824
O         46.85398        42.29828         1.62266
H         46.10270        42.74606         2.06512
O         41.32620        34.43189         1.18721
H         41.27701        35.12867         1.87678
O         41.87328        34.50899        -2.41839
H         41.69466        33.81437        -3.09448
O         36.92809        29.09072        -2.31954
H         36.32377        29.63008        -2.88737
O         35.27429        31.22066        -2.84455
H         35.54137        32.03634        -3.33732
O         45.54911        31.50811        -2.34615
H         45.39586        30.56774        -2.58784
O         50.52625        40.68136         1.90231
H         51.22978        41.36503         1.92572
O         36.48201        44.22120        -0.87202
H         35.55900        44.20285        -1.21590
O         31.81802        37.56044         1.84691
H         31.09877        37.89158         2.42405
O         37.72745        44.58933         2.53776
H         38.60370        44.85324         2.89120
