         344
 CSIRO Nanostructure Databank - Neutral Graphene Oxide Data Set
C          1.43164         3.52198        -1.56813
C          0.29970         4.23752        -1.94464
C          1.39476         6.35001        -1.37641
C          0.27565         5.63109        -1.85124
C          1.39178         7.78443        -1.25631
C          0.32422         8.56550        -1.84048
C          1.14127        10.59696        -0.68298
C          0.22348         9.89782        -1.64477
C          1.26309        12.08086        -0.93999
C          0.02951        12.81651        -1.13754
C          1.24522        14.87435        -0.68782
C         -0.00878        14.16604        -1.05142
C          1.24014        16.31162        -0.25975
C         -0.00555        17.08762        -0.08005
C          1.20345        19.18198        -0.62417
C         -0.01384        18.42511        -0.15374
C          1.19392        20.66136        -0.29114
C          0.01177        21.38949        -0.41620
C          1.16500        23.50843        -0.05155
C         -0.00837        22.78444        -0.26945
C          1.14528        24.96885         0.10660
C         -0.06546        25.69942         0.17064
C          1.13955        27.80906         0.27078
C         -0.07213        27.08759         0.21928
C          1.18022        29.25412         0.14087
C          3.73491         3.49074        -0.66783
C          2.57132         4.20316        -1.08111
C          3.72016         6.31464        -0.50533
C          2.56027         5.62491        -0.97953
C          3.70246         7.73857        -0.35856
C          2.49611         8.46069        -0.67892
C          3.62743        10.61037        -0.24726
C          2.46391         9.88548        -0.54253
C          3.67019        12.00397        -0.48816
C          2.48580        12.72917        -0.84445
C          3.75086        14.94911        -0.64311
C          2.53110        14.22751        -1.17960
C          3.72636        16.30626        -0.36658
C          2.51354        17.06147        -0.33896
C          3.67690        19.21398        -0.08510
C          2.49700        18.47531        -0.26288
C          3.65809        20.64104         0.06209
C          2.41004        21.35651        -0.05092
C          3.64102        23.47354         0.16025
C          2.40571        22.78536         0.02828
C          3.67911        24.97067        -0.06177
C          2.36267        25.68038         0.20306
C          3.61141        27.85381         0.42901
C          2.35072        27.08275         0.34193
C          3.63035        29.28170         0.02548
C          2.34702        29.94128        -0.03787
C          6.01641         3.34044         0.29771
C          4.85050         4.15329        -0.19982
C          6.06150         6.28013         0.30084
C          4.87901         5.58225        -0.13406
C          6.05781         7.71602         0.34207
C          4.87280         8.42093         0.06287
C          6.14958        10.59559         0.20082
C          4.81329         9.90087         0.37070
C          6.19245        11.99429        -0.05784
C          4.97607        12.67663        -0.54249
C          6.26250        14.87452        -0.25799
C          5.01747        14.20582        -0.65677
C          6.28067        16.35909        -0.49206
C          4.99826        17.03495         0.01098
C          6.20656        19.16551         0.22445
C          4.99077        18.52640        -0.40224
C          6.10134        20.57703         0.75159
C          4.85512        21.34373         0.32666
C          6.10368        23.51534         0.49250
C          4.84872        22.76812         0.35801
C          6.13056        24.88879         0.47703
C          4.82252        25.59900         0.74012
C          6.08360        27.73737        -0.16594
C          4.89330        27.11550         0.53920
C          6.11276        29.24805         0.00555
C          4.83672        29.94040        -0.04292
C          8.49451         3.48731         0.38706
C          7.28382         4.14212         0.43508
C          8.43236         6.25798         1.20036
C          7.23220         5.55706         0.61803
C          8.46015         7.74002         0.91873
C          7.30713         8.42979         0.61899
C          8.57985        10.59357         0.56273
C          7.32662         9.89002         0.47861
C          8.60722        12.01717         0.38319
C          7.39925        12.71414         0.07317
C          8.67503        14.88259         0.19875
C          7.42236        14.16651        -0.01274
C          8.65467        16.34027         0.28414
C          7.49116        17.05828         0.07465
C          8.56219        19.15087         1.05856
C          7.38081        18.47462         0.38362
C          8.64179        20.62150         0.74436
C          7.37324        21.32997         0.32760
C          8.63670        23.44924         0.40320
C          7.35966        22.76558         0.84380
C          8.64823        24.92409         0.27111
C          7.36128        25.65777         0.39292
C          8.63225        27.71806        -0.08201
C          7.36325        27.01065         0.17697
C          8.59924        29.22959        -0.15142
C          7.30083        29.92041         0.02093
C         10.94801         3.50971         0.28684
C          9.73517         4.20735         0.51816
C         11.00762         6.21506         1.31320
C          9.72925         5.56837         0.85629
C         11.01255         7.72700         1.14045
C          9.71201         8.47697         1.34209
C         11.01666        10.58350         0.86253
C          9.77791         9.89826         0.84227
C         11.03792        12.01045         0.77161
C          9.82798        12.73368         0.52444
C         11.19506        14.86995         0.38182
C          9.85014        14.16698         0.39319
C         11.10190        16.34169         0.68809
C          9.89149        17.04435         0.62353
C         11.08767        19.17240         0.92212
C          9.87666        18.45095         0.82049
C         11.11308        20.61250         1.03433
C          9.84848        21.33238         0.89405
C         11.06812        23.52483         1.08638
C          9.88011        22.74102         0.73980
C         11.11742        24.98141         0.78520
C          9.92036        25.65706         0.45358
C         11.09567        27.79411         0.37639
C          9.90345        27.05058         0.26850
C         11.04068        29.24838         0.30218
C          9.86764        29.92152         0.13123
C         13.38959         3.52581        -0.03173
C         12.19232         4.18199         0.32847
C         13.45107         6.23372         0.72722
C         12.23723         5.55696         0.72711
C         13.47735         7.64374         1.17663
C         12.19827         8.40775         1.12132
C         13.47152        10.56314         0.99512
C         12.25750         9.86740         1.02763
C         13.47566        11.99658         0.95237
C         12.26916        12.70083         0.95907
C         13.55311        14.88525         1.47282
C         12.17274        14.17017         1.34129
C         13.54755        16.32925         1.00558
C         12.32660        17.03861         0.88407
C         13.55383        19.18049         0.82388
C         12.32596        18.46996         0.88679
C         13.57820        20.61049         0.88737
C         12.33552        21.29904         1.07859
C         13.66625        23.52146         1.29796
C         12.35927        22.75729         1.31895
C         13.63391        25.01908         1.11335
C         12.33352        25.70539         0.82339
C         13.57009        27.82115         0.36447
C         12.32288        27.10334         0.59138
C         13.53895        29.23877         0.14499
C         12.31493        30.01804         0.56016
C         15.83041         3.52739        -0.37099
C         14.62211         4.19875         0.00174
C         15.92630         6.27321         0.39791
C         14.66685         5.57571         0.38491
C         15.99901         7.66058         0.69617
C         14.78708         8.36843         1.18305
C         15.95675        10.50537         0.51436
C         14.80560         9.89139         1.29149
C         15.95938        12.02494         0.43759
C         14.72846        12.75183         0.84795
C         16.01752        14.86366         0.92706
C         14.73031        14.11542         0.91421
C         16.00763        16.33124         0.70768
C         14.77015        17.02883         0.83246
C         15.95571        19.14731         0.32965
C         14.76535        18.45309         0.67624
C         15.94994        20.58963         0.29230
C         14.80552        21.30317         0.69507
C         16.01831        23.49266         0.26113
C         14.98840        22.75532         1.11825
C         15.99746        24.89357         0.10622
C         14.95565        25.75183         0.81505
C         15.89556        27.75807        -0.37650
C         14.76149        27.11199         0.18225
C         15.83944        29.16510        -0.65363
C         14.65597        29.89131        -0.32349
C         18.25869         3.51439        -0.80178
C         17.04356         4.18393        -0.35821
C         18.36002         6.24570         0.04520
C         17.11479         5.56903         0.03810
C         18.41184         7.62255         0.27131
C         17.22273         8.35611         0.54313
C         18.42861        10.51311         0.22572
C         17.24565         9.80358         0.50000
C         18.43659        11.96933         0.22230
C         17.26355        12.68896         0.44567
C         18.58928        14.93124         0.58070
C         17.31023        14.12272         0.81206
C         18.33085        16.19474        -0.26812
C         17.15130        17.00536         0.23927
C         18.24400        19.07128        -0.71018
C         17.11929        18.39784         0.02557
C         18.27668        20.57369        -0.53022
C         17.14413        21.29362        -0.12609
C         18.25784        23.41750        -0.76507
C         17.13242        22.74119        -0.19984
C         18.22923        24.83426        -0.94354
C         17.07847        25.57011        -0.52225
C         18.16552        27.67076        -1.30527
C         17.05973        27.00525        -0.71280
C         18.11849        29.09015        -1.52882
C         16.95568        29.81376        -1.20247
C         19.45706         4.12665        -0.79101
C         20.56233         6.36322        -1.07699
C         19.65727         5.50448        -0.22053
C         20.59505         7.68567        -0.88443
C         19.76083         8.31106         0.22430
C         20.85838        10.52239        -0.03367
C         19.67632         9.81509         0.10270
C         20.87228        11.92912        -0.07911
C         19.69920        12.66989         0.05452
C         20.81131        14.82713        -0.47183
C         19.71961        14.11263        -0.01569
C         20.79876        16.24378        -0.53302
C         19.62657        16.98159        -0.38960
C         20.74213        19.16168        -0.73312
C         19.58771        18.39644        -0.53605
C         20.68151        20.53299        -0.99307
C         19.47337        21.25530        -0.90377
C         20.53633        23.37507        -1.65110
C         19.43653        22.68684        -1.10559
C         20.49630        24.74778        -1.84943
C         19.36375        25.50514        -1.49927
C         20.41865        27.64196        -2.25050
C         19.33833        26.94551        -1.69195
C         20.37105        29.03420        -2.44454
C         19.24337        29.75194        -2.09762
O          8.64424        28.40397        -1.39138
O         15.66289        11.17226        -0.74251
O          1.31822        15.19886         0.73556
O         13.70193        24.42054         2.45754
O         16.76713        14.42402         2.16541
O          8.62415        24.04131        -0.94899
O         11.53891        23.16864         2.45165
O         14.23980         7.80111         2.43466
O          4.39270        27.78415         1.72778
O          5.18020        13.34492        -1.85519
O          2.58620        14.33162        -2.62602
H          3.45879        13.96213        -2.89665
O          4.55477        25.33120         2.13815
H          4.28408        26.19472         2.54133
O         15.59464        22.64342         2.44007
H         15.20583        23.35281         3.00128
O          7.33155        21.38135        -1.12147
H          7.90614        22.11760        -1.42882
O          0.49307        10.49771         0.64627
H          1.12177        10.86819         1.30274
O         17.96132        15.77439        -1.60873
H         17.82011        16.59555        -2.13392
O         15.56815        26.09094         2.09779
H         15.17542        25.48736         2.77175
O          9.57002         8.59389         2.82645
H         10.45868         8.80075         3.19068
O          5.08430        16.97482         1.45203
H          4.36825        17.52318         1.83539
O          6.00364        20.47031         2.19182
H          6.54280        21.19479         2.59389
O          1.16254        19.12095        -2.09261
H          2.03481        19.42474        -2.42454
O          7.41121        22.73536         2.30736
H          6.91085        23.50587         2.65264
O         11.08020         5.97189         2.76994
H         10.15115         5.83095         3.07853
O          8.28772         6.15766         2.69644
H          8.51409         7.05206         3.05906
O         13.84891        14.95848         2.90960
H         14.82547        14.96307         3.02411
O          8.32944        19.04288         2.50865
H          9.07447        19.49220         2.96122
O         20.44710         8.05275         1.48157
H         20.56971         7.07100         1.54602
O         17.92203        18.84689        -2.15016
H         18.58665        19.35038        -2.66898
O          6.21790         2.18110        -0.52024
H          6.40058         2.48046        -1.43417
O         19.08641        15.38572         1.86002
H         18.37401        15.21879         2.52295
O         12.27146        31.30444        -0.05688
H         12.17016        31.17793        -1.02238
O         11.51103        14.18443         2.62114
H         12.21093        14.26764         3.31053
O          3.98077        25.17682        -1.46837
H          3.29697        24.71950        -2.00043
O          6.34447        16.46630        -1.95619
H          7.03186        15.84366        -2.27461
O          5.05359        18.70375        -1.84125
H          5.76181        18.11712        -2.19965
O          5.88603        27.50249        -1.58864
H          6.72458        27.76644        -2.03444
O         20.34032         5.32202         1.07095
H         19.74613         4.79148         1.64318
O         11.75676        14.72730        -0.95506
H         11.17551        15.20280        -1.58426
O         15.10885        10.21517         2.67662
H         14.70008         9.50372         3.22451
O          4.54228         9.98210         1.82061
H          5.25045         9.48192         2.28058
H          1.44754         2.42523        -1.63986
H         -0.58751         3.70452        -2.31429
H         -0.64082         6.16248        -2.13978
H         -0.39240         8.06665        -2.50797
H         -0.57831        10.46354        -2.13917
H         -0.89865        12.25428        -1.31028
H         -0.95375        14.71977        -1.14081
H         -0.90441        16.53669         0.23318
H         -0.94312        18.97668         0.04973
H         -0.93081        20.87350        -0.64416
H         -0.97313        23.30145        -0.35834
H         -1.02833        25.17205         0.13673
H         -1.02717        27.63179         0.19519
H          0.22080        29.79128         0.10315
H          3.74350         2.39220        -0.72129
H          2.32394        31.02708        -0.21365
H          5.75230         2.95354         1.32339
H          4.85104        31.03405        -0.17171
H          8.51944         2.40449         0.19828
H          7.31016        31.01878         0.10422
H         10.91488         2.44316         0.02125
H          9.86804        31.02104         0.19090
H         13.35605         2.46958        -0.33701
H         12.39184        30.20070         1.67006
H         15.77806         2.47491        -0.68701
H         14.63249        30.98214        -0.46173
H         18.16430         2.48379        -1.17709
H         16.91856        30.89680        -1.39068
H         20.35517         3.59258        -1.13661
H         21.18585         5.87891        -1.84391
H         21.25759         8.32519        -1.48770
H         21.81224         9.97949        -0.08731
H         21.83869        12.43970        -0.18580
H         21.72141        14.30854        -0.80628
H         21.74597        16.75046        -0.76672
H         21.73164        18.68613        -0.69298
H         21.62298        21.06316        -1.18669
H         21.44350        22.82919        -1.94166
H         21.37848        25.23667        -2.28249
H         21.32991        27.10911        -2.55209
H         21.23884        29.54635        -2.88323
H         19.19937        30.83858        -2.25815
