         621
 CSIRO Nanostructure Databank - Neutral Graphene Oxide Data Set
C          5.95957        31.62009         0.59542
C          5.95345        32.98073         0.64410
C          8.41119        27.30763         0.85046
C          7.91517        28.45950         1.40161
C          6.97934        29.43188         0.86871
C          8.14751        31.51005         1.81618
C          7.02106        30.78817         1.12782
C          8.17856        33.01919         1.81058
C          7.03618        33.76443         1.20696
C          8.12094        35.94043         1.81416
C          7.02554        35.12637         1.16280
C          8.25033        37.34569         1.28493
C         10.88225        23.09268         1.16705
C         10.84968        24.47973         1.39683
C          9.68418        25.23916         1.10035
C         10.77619        27.28430         1.87438
C          9.60347        26.60755         1.34279
C         10.78297        28.73032         1.97595
C          9.63517        29.44631         2.19050
C         10.78053        31.65423         1.86639
C          9.50450        30.85374         1.80965
C         10.69841        33.11313         2.03930
C          9.47836        33.74630         1.90490
C         10.69965        35.98475         1.88627
C          9.44380        35.20700         1.69688
C         10.63223        37.49672         2.08820
C          9.42120        38.06763         1.37689
C         10.77584        39.98910         0.57552
C          9.52797        39.37460         0.83195
C         10.82222        41.27721         0.04339
C         13.36393        18.84541         0.80559
C         13.31003        20.23260         1.20132
C         12.11887        20.95865         1.08856
C         13.23757        23.03146         1.85350
C         12.06297        22.35151         1.36955
C         13.19069        24.41105         2.16197
C         12.01499        25.15044         1.91233
C         13.20822        27.25975         2.47618
C         11.97607        26.57320         2.10749
C         13.28517        28.73221         2.30636
C         12.04875        29.49457         1.93550
C         13.16805        31.65728         2.55262
C         12.02595        30.94918         2.20943
C         13.13216        33.11723         2.57121
C         11.93829        33.79990         2.31516
C         13.18118        36.03023         2.57186
C         11.89114        35.26705         2.43276
C         13.19055        37.47720         2.15546
C         11.95343        38.09943         1.62972
C         13.30240        39.82079         0.49279
C         12.01934        39.26740         0.90129
C         13.31503        40.96701        -0.44561
C         12.03167        41.79890        -0.58679
C         13.35962        43.86194        -1.12588
C         12.15962        43.22574        -0.89211
C         13.38931        45.27093        -1.39159
C         16.00138        14.85753        -0.62671
C         15.85373        16.10973         0.06358
C         14.62476        16.78512         0.20566
C         15.79037        18.78065         1.19661
C         14.54400        18.11097         0.74360
C         15.77533        20.19507         1.67659
C         14.49253        20.93408         1.63927
C         15.69077        22.99934         2.37770
C         14.45105        22.28123         1.98051
C         15.66284        24.44745         2.53013
C         14.35159        25.07081         2.88958
C         15.62982        27.26904         3.00269
C         14.37607        26.57488         2.75773
C         15.57050        28.68855         3.42148
C         14.34276        29.48412         3.04449
C         15.55766        31.66924         3.18894
C         14.39390        30.96603         2.91991
C         15.59407        33.11273         2.98204
C         14.38290        33.83569         2.73564
C         15.67744        35.90545         2.41174
C         14.43201        35.24730         2.58264
C         15.75378        37.27717         1.94665
C         14.51666        38.08818         1.78388
C         15.78723        39.82220         0.46846
C         14.50948        39.25737         0.87765
C         15.85779        41.02848        -0.19479
C         14.62494        41.64159        -0.73146
C         15.89602        43.87334        -0.92235
C         14.64316        43.11039        -1.12241
C         15.85108        45.38542        -1.03762
C         14.55488        46.00982        -1.57108
C         15.46898        48.14511        -2.50249
C         14.43575        47.40940        -1.86233
C         15.85378        49.47624        -2.52236
C         18.33575        11.01499        -2.82393
C         18.24694        12.34511        -2.35554
C         17.10247        12.98660        -1.83075
C         18.33855        15.10536        -1.55940
C         17.15149        14.30364        -1.26427
C         18.56574        16.33324        -0.82353
C         17.02242        16.83444         0.54842
C         18.39833        18.91871         0.83656
C         17.07136        18.17527         0.78478
C         18.16940        20.41630         1.01541
C         17.03636        20.97164         1.51902
C         18.21589        23.22346         1.94784
C         17.02552        22.35564         2.06042
C         18.18914        24.55925         2.26100
C         16.86301        25.28597         2.20135
C         18.11781        27.36808         2.98339
C         16.85697        26.64772         2.84889
C         18.11024        28.72570         3.30618
C         16.85185        29.43263         3.63520
C         18.09525        31.68111         3.40897
C         16.81330        30.95925         3.56136
C         18.03084        33.16446         3.64504
C         16.82242        33.81620         3.00419
C         18.16906        35.82371         2.36215
C         16.87035        35.16457         2.60810
C         18.21806        37.25067         2.03844
C         16.96775        37.88773         1.69489
C         18.35624        39.77073         0.67816
C         17.02219        39.09996         0.84706
C         18.41949        41.14917         0.08893
C         17.13292        41.75866        -0.43075
C         18.34353        43.96707        -0.50885
C         17.07676        43.23851        -0.59973
C         18.35342        45.27289        -0.99393
C         17.18206        45.86218        -1.57124
C         18.50121        47.81669        -2.40076
C         17.33281        46.97702        -2.36425
C         18.43653        49.21671        -2.87069
C         17.15409        49.97044        -2.98622
C         18.42934        52.05842        -3.57835
C         17.19240        51.30149        -3.36459
C         18.50875        53.26708        -4.39474
C         20.78571         7.25561        -4.94228
C         20.75380         8.47432        -4.23233
C         19.56496         9.10375        -3.84269
C         20.79784        11.13236        -3.24074
C         19.55169        10.41179        -3.26645
C         20.80436        12.50110        -2.72889
C         19.50475        13.11837        -2.30990
C         20.56841        15.37241        -2.62352
C         19.41429        14.58552        -2.27501
C         20.53066        16.77038        -2.73132
C         19.08095        17.52958        -1.24337
C         20.48904        19.47058        -0.43584
C         19.34377        18.67706        -0.38115
C         20.62873        20.58872         0.48215
C         19.36175        21.26166         0.80450
C         20.73958        23.22528         1.66358
C         19.42841        22.64392         1.35045
C         20.73780        24.65411         2.10159
C         19.41909        25.32088         2.38653
C         20.64823        27.33386         3.18723
C         19.38131        26.65251         2.76761
C         20.65330        28.82993         3.06758
C         19.33243        29.54313         3.14037
C         20.53576        31.72247         3.60435
C         19.30822        31.00926         3.40890
C         20.53280        33.14437         3.65850
C         19.35707        33.84326         3.45020
C         20.60671        36.05988         3.16077
C         19.44661        35.20588         2.90055
C         20.64105        37.35765         2.63632
C         19.44240        37.91572         2.03732
C         20.70304        40.14124         1.67101
C         19.44066        39.33901         1.61645
C         20.78205        41.43010         0.92171
C         19.60542        41.99457         0.37672
C         20.81352        44.06412        -0.06431
C         19.59020        43.34380        -0.06760
C         20.85294        45.46595        -0.51203
C         19.58635        46.06640        -1.04063
C         20.98200        47.80489        -2.31872
C         19.65426        47.26666        -1.88328
C         20.93297        49.32455        -2.39173
C         19.63983        49.88238        -2.97893
C         20.93044        51.79283        -4.12894
C         19.72697        51.32194        -3.31258
C         20.97842        53.29527        -4.23165
C         19.73790        53.93060        -4.58487
C         21.01436        55.93217        -5.28433
C         19.81359        55.20643        -5.20373
C         20.99299        57.11417        -6.12935
C         23.09703         5.09104        -6.92262
C         21.92584         5.58713        -6.30060
C         23.34753         7.05149        -4.84573
C         21.97764         6.65835        -5.40177
C         23.34387         8.45534        -4.21974
C         22.04911         9.12668        -3.90758
C         23.21795        11.35895        -3.72807
C         22.02299        10.58606        -3.65587
C         23.16150        12.77612        -3.45661
C         21.95296        13.36152        -3.03640
C         23.03819        15.55231        -2.90843
C         21.85146        14.76001        -2.86600
C         22.97281        16.94611        -2.63358
C         21.71432        17.52218        -2.69872
C         22.93654        19.60283        -0.84758
C         21.67527        19.31000        -1.28773
C         23.07565        20.45558         0.36166
C         21.83863        21.16079         0.81430
C         23.18794        23.02080         1.87110
C         21.88041        22.48897         1.42486
C         23.26269        24.38090         2.48018
C         22.04402        25.26733         2.55449
C         23.19431        27.52341         3.22267
C         21.98334        26.63341         3.24625
C         23.13259        28.95693         3.21295
C         21.89276        29.58663         3.33004
C         23.13188        31.79588         3.64724
C         21.81940        30.99965         3.68589
C         23.04236        33.29192         3.37918
C         21.79500        33.88466         4.06927
C         23.02371        36.22304         3.96708
C         21.74424        35.42608         3.88482
C         22.94762        37.73802         3.68507
C         21.85875        38.17946         2.69866
C         23.19576        40.20171         2.08345
C         21.90810        39.45959         2.19880
C         23.24335        41.53936         1.38179
C         21.98873        42.15897         0.90209
C         23.26853        44.23537         0.33692
C         22.02683        43.47146         0.36990
C         23.30531        45.48361        -0.30198
C         22.15063        46.07178        -0.87843
C         23.40671        48.00980        -1.75739
C         22.19736        47.30883        -1.56511
C         23.46703        49.27043        -2.40704
C         22.22350        49.82182        -3.00836
C         23.47075        51.96347        -3.56935
C         22.24835        51.14167        -3.70529
C         23.42484        53.31245        -3.87709
C         22.18946        53.99194        -4.28369
C         23.48990        56.05699        -4.72237
C         22.21171        55.37330        -4.68712
C         23.59904        57.44096        -4.98081
C         21.87870        58.17498        -5.99179
C         23.57149        59.78614        -6.80117
C         22.31134        59.16639        -6.90961
C         24.31612         5.71110        -6.74717
C         25.61389         7.57036        -5.85451
C         24.46425         6.82798        -5.85156
C         25.80566         8.78244        -5.03955
C         24.59557         9.29865        -4.26138
C         25.60025        11.56457        -4.34977
C         24.48374        10.76737        -4.09575
C         25.48857        13.02991        -4.26064
C         24.30658        13.61195        -3.62592
C         25.49310        15.80230        -3.31599
C         24.28881        14.96823        -3.26990
C         25.47232        17.15668        -2.75470
C         24.20272        17.63132        -2.15566
C         25.46272        19.67173        -1.28791
C         24.18917        18.90579        -1.32598
C         25.44832        20.95213        -0.51836
C         24.41781        21.09815         0.57520
C         25.77699        23.04533         1.57206
C         24.47198        22.30718         1.48028
C         25.79937        24.30987         2.38059
C         24.49327        24.74842         2.92798
C         25.64121        27.63001         2.86678
C         24.46864        26.98427         3.30926
C         25.60361        29.04128         2.80324
C         24.37531        29.71524         3.14078
C         25.59071        31.87618         3.15547
C         24.37552        31.11790         3.23857
C         25.60291        33.28189         3.39339
C         24.34786        33.98354         3.76867
C         25.63330        36.20824         3.69155
C         24.35853        35.48935         3.98258
C         25.63098        37.60273         3.46517
C         24.34819        38.37299         3.48668
C         25.67673        40.44460         2.64052
C         24.37246        39.75030         2.89584
C         25.67406        41.82112         2.03811
C         24.44232        42.40090         1.47413
C         25.74167        44.41102         0.89447
C         24.47776        43.67018         0.91097
C         25.76471        45.81134         0.39388
C         24.52468        46.32875        -0.27596
C         25.89816        48.18554        -1.33903
C         24.69026        47.29227        -1.42992
C         25.91870        49.37677        -2.09108
C         24.68242        49.93510        -2.63467
C         25.92563        51.93110        -3.32961
C         24.70247        51.28368        -3.18076
C         25.98017        53.37349        -3.52120
C         24.65774        54.10698        -3.76945
C         25.97319        56.05755        -4.65653
C         24.71654        55.40897        -4.43244
C         25.99491        57.35523        -5.23077
C         24.79333        58.07197        -5.42390
C         24.69946        59.33055        -6.10931
C         26.87421         9.72972        -5.35874
C         28.02572        11.86221        -4.87548
C         26.84631        11.03265        -4.87389
C         28.02616        13.20020        -4.48068
C         26.72935        13.90253        -4.35270
C         27.92924        16.08728        -3.86198
C         26.67966        15.25286        -3.76070
C         27.91027        17.32727        -2.98957
C         26.63658        17.91085        -2.59727
C         27.83025        20.06975        -1.98832
C         26.59785        19.21940        -1.92701
C         27.88703        21.49299        -1.36363
C         26.66897        21.82297        -0.49314
C         28.02975        23.52732         0.71889
C         26.83888        22.82968         0.57762
C         28.11094        24.76199         1.48491
C         26.81735        25.36566         1.96763
C         28.06439        27.61673         2.25015
C         26.76804        26.85322         2.26231
C         28.00129        29.12106         1.98119
C         26.79697        29.80066         2.59740
C         28.10341        31.83252         3.06758
C         26.82262        31.16972         2.88045
C         28.07809        33.21669         3.61661
C         26.81693        34.01061         3.48058
C         28.13468        36.12624         3.69473
C         26.83408        35.41611         3.63863
C         28.12896        37.60381         3.36565
C         26.84445        38.30262         3.11712
C         28.15615        40.33888         2.43240
C         26.91305        39.64577         2.70249
C         28.13556        41.73381         2.00587
C         26.97267        42.41211         1.67103
C         28.17867        44.59347         1.31835
C         26.93741        43.78404         1.22057
C         28.22598        45.97114         0.71398
C         27.03069        46.48927         0.05510
C         28.30998        48.43087        -0.85440
C         27.07949        47.69898        -0.69341
C         28.34840        49.52626        -1.74669
C         27.16333        50.02118        -2.32559
C         28.45280        51.98006        -3.28602
C         27.20318        51.13258        -3.34931
C         28.43638        53.30651        -3.78057
C         27.23460        54.02258        -3.96656
C         27.19356        55.33969        -4.43744
C         29.20635        13.91499        -4.15931
C         30.37021        15.90049        -3.34933
C         29.19594        15.26163        -3.74678
C         30.37518        17.25235        -2.89376
C         29.10756        17.93408        -2.68024
C         30.40233        19.93465        -1.78726
C         29.13229        19.35968        -2.27863
C         30.42312        21.14362        -1.04639
C         29.20212        21.82624        -0.67190
C         30.48123        23.58840         0.49647
C         29.23699        22.97506         0.12560
C         30.52346        24.86906         1.04946
C         29.29149        25.48326         1.49232
C         30.47291        27.75439         1.39094
C         29.33123        26.90654         1.92865
C         30.50757        29.13334         2.03785
C         29.31953        29.79659         2.30675
C         30.60172        31.72597         3.22981
C         29.29300        31.14727         2.83159
C         30.67513        33.12230         3.81763
C         29.39430        33.92309         3.90386
C         30.61432        36.03315         3.40225
C         29.43074        35.38289         3.62290
C         30.65476        37.41573         2.82856
C         29.36913        38.19862         2.76522
C         30.64937        40.29845         2.24783
C         29.38519        39.65825         2.52303
C         30.65667        41.63010         1.86744
C         29.43283        42.43806         1.91499
C         30.70997        44.49150         0.93345
C         29.49120        43.90504         1.56683
C         30.75264        45.76919         0.41837
C         29.55069        46.64103         0.49047
C         30.92059        48.57074        -0.59497
C         29.55867        47.99134        -0.17997
C         30.81749        49.62276        -1.66132
C         29.63185        50.16107        -2.08723
C         29.62454        51.39175        -2.83286
C         31.56883        17.89876        -2.58780
C         32.84338        19.76527        -1.61539
C         31.60886        19.20829        -2.00302
C         32.89781        20.99643        -0.92790
C         31.67088        21.63020        -0.57338
C         33.04485        23.51340         0.51445
C         31.70679        22.81482         0.28138
C         33.01093        24.95369         0.81324
C         31.78247        25.60431         1.13452
C         32.99752        27.72026         1.40789
C         31.78466        26.99482         1.39842
C         33.01002        29.12653         1.73246
C         31.78639        29.82002         2.14311
C         33.03281        31.93748         2.55467
C         31.81934        31.11257         2.65354
C         33.16097        33.26147         3.18926
C         32.01393        33.86667         3.98362
C         33.18072        36.12742         3.41633
C         31.91683        35.38969         3.73213
C         33.15313        37.49854         2.85214
C         31.94422        38.14886         2.67114
C         33.11474        40.23744         2.13002
C         31.92029        39.56936         2.33015
C         33.18858        41.68013         1.85414
C         31.89282        42.38880         1.63817
C         33.12921        44.10226         0.23745
C         31.80079        43.49501         0.60521
C         33.03710        45.28677        -0.69129
C         31.89872        46.24265        -0.35810
C         31.92403        47.48246        -0.91284
C         34.15114        21.64625        -0.68648
C         35.42158        23.69024        -0.15264
C         34.23725        22.92546        -0.13092
C         35.44139        25.03327         0.28428
C         34.21281        25.67989         0.72307
C         35.45287        27.78287         1.02561
C         34.22372        27.06007         1.06819
C         35.46682        29.14378         1.39132
C         34.23704        29.79514         1.74660
C         35.59188        31.83201         2.35063
C         34.26559        31.23811         2.03516
C         35.66190        33.23131         2.87559
C         34.38639        33.96720         3.13477
C         35.69597        36.12514         3.25009
C         34.43730        35.36311         3.26731
C         35.64161        37.55594         2.89769
C         34.42401        38.15489         2.63931
C         35.59004        40.39593         2.39683
C         34.41734        39.50271         1.96553
C         35.60803        41.63714         1.53285
C         34.43104        42.25972         1.27026
C         34.31372        43.49958         0.51126
C         36.63326        25.78031         0.22236
C         37.86542        27.89654         0.46738
C         36.67170        27.14524         0.58141
C         37.89722        29.26758         0.78646
C         36.69645        29.87836         1.28298
C         37.86876        32.02211         1.37211
C         36.74332        31.23486         1.64700
C         37.72763        33.43325         1.56394
C         36.85089        34.00981         2.45443
C         38.25674        36.20083         2.58078
C         37.02154        35.39893         2.88810
C         38.16430        37.55965         2.60581
C         36.89708        38.27691         2.64580
C         36.88072        39.61886         2.38514
C         39.09467        30.05015         0.70380
C         40.40365        32.11065         1.10079
C         39.11644        31.41920         0.97764
C         40.68970        33.37945         1.52985
C         39.69878        34.43199         1.68325
C         39.56729        35.51181         2.50445
O         20.43576        12.59959        -1.28627
O         35.86222        32.08562         3.77574
O         29.61907        43.50323         2.96030
O         28.41715        20.13964        -3.32129
O         25.67352        41.63971         3.51089
O         24.05200        19.91131         1.31937
O         22.50537        58.24641        -4.71651
O         25.67800         8.63851        -3.56125
O         32.46879        22.64756         1.53697
O         20.06454        46.38761         0.35047
O         28.23278        37.15695         4.74811
O         18.09254        41.12751        -1.34152
O         28.57000        33.44031         4.99375
O         24.42566        34.55782         5.10892
O         29.53705        47.87670         1.28667
O         19.24264        52.22042        -2.30202
O         23.58768        40.26475         0.65529
O         22.60839        31.31904         4.89974
O         16.82751        30.22917         4.85439
O         10.29501        35.59203         0.54652
O         13.89858        38.35445         3.10218
O         24.31999        39.57891         4.33311
O         26.32795        26.31610         0.95204
O         16.49864        22.32823         3.43919
O         21.52626        18.89981        -2.61902
O         19.64396        40.27055         2.72298
O         19.35389        17.54942        -2.64992
O         24.83378        46.78511         1.05418
O         22.19460        36.00747         5.14706
O         19.15927        22.41614        -0.10460
O         21.56255        25.46312         1.16976
O         24.29670        17.58679        -0.66998
O         28.96919        27.20369         3.31602
O         36.63269        35.65401         4.27093
O         12.32006        35.77613         3.74434
O         38.58592        34.24719         0.82763
O         25.29490        54.11262        -2.44781
O         14.52938        28.97511         4.40352
O         23.86605        22.04566         2.76227
O         19.98557        29.26062         1.82586
O         25.85362        13.72381        -5.51561
O         24.61731        25.73522         3.89169
O         31.14000        42.99266        -0.54778
O         17.93839        38.78507        -0.28814
O         25.49509        22.15996        -1.36103
O         22.81234         8.40351        -2.84983
O         16.31999        47.29561        -3.24742
O         15.82254        19.10067         2.65901
O         32.63376        42.59614         2.87739
O          8.47583        28.82315         2.65668
O         26.34830        23.09478         2.94316
O         12.50077        40.82924        -1.62423
O         29.84517        37.45571         1.57642
O         27.98125        45.76171         2.16583
O         21.16963        26.77422         4.44842
O         14.75361        42.05505        -2.13054
O         30.65999        31.96258         4.68467
O         19.06537        35.07734         1.46080
O         22.39080        49.87260        -4.46007
O          7.82120        32.24509         3.02431
O         10.23263        31.16841         0.57289
O         18.24826        16.15750         0.53110
O         13.06020        29.13828         0.92130
O         33.47500        32.04006         1.10015
O         32.61521        36.12324         4.80579
O         27.84902        22.43912        -2.45759
H         26.91092        22.51160        -2.74498
O         31.48346        49.29665         0.53937
H         31.04538        48.92665         1.34508
O         22.86701        33.48841         1.95492
H         23.53539        32.95570         1.47461
O         30.17599        27.95775        -0.02380
H         30.89552        28.49827        -0.41175
O         27.78855        29.23623         0.54159
H         27.77041        30.18703         0.30756
O         17.74720        33.31939         5.09221
H         18.41231        32.79625         5.59067
O         21.86375        33.61872         5.47329
H         22.59569        34.16498         5.84989
O         23.60833         6.10972        -3.77463
H         23.26069         6.52125        -2.94904
O          7.84150        36.00187         3.24416
H          7.05902        36.57462         3.38203
O         15.84255        45.89531         0.34997
H         16.68483        45.62144         0.77442
O         35.33260        40.78623         3.77307
H         35.92781        41.52874         4.00336
O         21.14714        47.33921        -3.69389
H         21.25505        46.36526        -3.68207
O         19.14704        18.49920         2.00488
H         18.52529        18.45583         2.76250
O         34.58705        39.25046         0.53646
H         33.78609        38.78979         0.20931
O         20.64711        51.36349        -5.49414
H         21.12128        50.50639        -5.62491
O         22.39684        38.33916         4.87853
H         22.97208        38.12038         5.64145
O         20.97089        49.85400        -1.04610
H         20.19840        49.51269        -0.54765
O         32.38025        33.67124         5.36463
H         32.81051        34.50397         5.67568
O         10.47887        37.78847         3.49183
H         11.18479        37.29816         3.98000
O         16.71742        25.57301         0.74161
H         17.56116        25.97120         0.43378
O         27.94455        16.59190        -5.24423
H         27.18374        17.20154        -5.34928
O         34.27458        45.99253        -0.78090
H         34.45050        46.41651         0.08386
O         24.95215        46.40441        -2.58294
H         24.92259        46.95439        -3.39490
O         14.13316        24.78508         4.32045
H         13.28805        25.20793         4.58280
O         27.26812        50.47184        -4.66558
H         26.43922        49.95911        -4.77794
H          5.10894        31.10163         0.12741
H          5.09926        33.53011         0.22099
H          7.93085        26.89369        -0.04921
H          6.18462        29.06341         0.19951
H          6.16923        35.64815         0.70560
H          7.37593        37.80548         0.79631
H          9.97952        22.58506         0.79636
H          8.81941        24.71840         0.66285
H          8.61539        39.87562         0.47422
H          9.89734        41.87073        -0.01693
H         12.42254        18.37318         0.48491
H         11.20740        20.45318         0.73590
H         11.24472        43.83513        -0.82826
H         12.41992        45.76742        -1.55726
H         15.07372        14.27035        -0.73989
H         13.70443        16.32409        -0.18467
H         13.46626        47.89387        -1.66189
H         15.16936        50.23403        -2.11171
H         17.42223        10.40149        -2.85259
H         16.16066        12.42029        -1.76169
H         16.24043        51.83777        -3.49975
H         17.58339        53.70641        -4.79651
H         19.82775         6.80215        -5.24361
H         18.60782         8.58779        -4.01307
H         18.89552        55.64990        -5.61711
H         20.26486        57.12232        -6.95471
H         23.01063         4.24994        -7.62474
H         20.94776         5.17528        -6.59161
H         23.74001        60.65042        -7.46382
H         21.67638        59.41479        -7.77219
H         25.18969         5.38816        -7.33238
H         26.40906         7.31905        -6.57456
H         26.95656        57.80672        -5.51374
H         25.64202        59.87046        -6.28770
H         27.74339         9.37392        -5.93193
H         28.98901        11.37199        -5.08289
H         29.39482        53.83012        -3.92344
H         28.13913        55.83483        -4.70581
H         30.16881        13.38025        -4.18160
H         31.32049        15.34511        -3.36383
H         31.76031        50.11098        -1.95309
H         30.57335        51.94423        -2.91870
H         32.52058        17.36924        -2.74262
H         33.77507        19.22874        -1.84584
H         32.82798        44.87287        -1.71699
H         32.81284        47.77432        -1.49408
H         35.06265        21.17682        -1.08592
H         36.34255        23.24645        -0.55914
H         36.56197        42.03871         1.15804
H         35.24320        43.95318         0.13039
H         37.55263        25.29227        -0.13359
H         38.77883        27.39815         0.11043
H         39.07306        38.16505         2.46961
H         37.83119        40.15852         2.24723
H         40.03110        29.53950         0.43091
H         41.27154        31.44261         0.96808
H         41.74150        33.62203         1.74935
H         40.39008        35.86533         3.14347
