         424
 CSIRO Nanostructure Databank - Neutral Graphene Oxide Data Set
C          1.38714         2.33802         0.72451
C          1.35773         3.63078         0.19589
C          2.55798         1.58914         0.63287
C          2.50738         4.19883        -0.35964
C          1.21978         6.32744        -0.86526
C          1.22398         7.63292        -0.56695
C          2.47458         5.52231        -1.08108
C          2.49269         8.36814        -0.35826
C          1.28568        10.65324        -0.18528
C          1.31918        12.00719        -0.18723
C          2.52890         9.86406        -0.19204
C          2.55921        12.74710        -0.24314
C          1.37082        14.93163         0.00994
C          1.37908        16.31006         0.02568
C          2.56683        14.17889        -0.19012
C          2.58496        17.03381        -0.15609
C          2.59772        18.46455        -0.17126
C          3.71919         2.15209         0.08742
C          3.73130         3.48450        -0.37232
C          4.91732         1.27599        -0.09630
C          4.99794         4.13978        -0.73196
C          3.75213         6.29771        -0.85638
C          3.73825         7.66031        -0.75463
C          5.00150         5.54747        -0.89659
C          4.95407         8.45386        -1.14230
C          3.79343        10.59918        -0.45612
C          3.78064        12.03224        -0.39815
C          4.97884         9.90232        -0.70787
C          5.00989        12.74521        -0.56955
C          3.79751        14.88633        -0.34946
C          3.80267        16.31531        -0.33331
C          5.02171        14.17342        -0.56060
C          5.02407        17.02952        -0.50319
C          3.76348        19.15606        -0.36598
C          5.01246        18.46670        -0.54035
C          6.23356         2.00321        -0.30753
C          6.23532         3.40257        -0.72133
C          7.33112         1.23323         0.02988
C          7.45517         4.14918        -0.89333
C          6.22992         6.29016        -0.88115
C          6.24010         7.70902        -0.90618
C          7.46907         5.58606        -0.84466
C          7.45200         8.42489        -0.92434
C          6.21542        10.59694        -0.83786
C          6.22271        12.02884        -0.77834
C          7.44801         9.86574        -0.97183
C          7.41991        12.74885        -1.05002
C          6.24328        14.88090        -0.76089
C          6.24689        16.32227        -0.69680
C          7.44622        14.15676        -1.03083
C          7.44064        17.04662        -0.90533
C          6.20259        19.17343        -0.72881
C          7.45203        18.49290        -0.84305
C          8.67876         1.55479        -0.32988
C          8.72496         3.53705        -1.07533
C          9.85002         1.33973         0.35575
C          9.95647         4.15939        -0.80559
C          8.70024         6.30364        -0.85340
C          8.70765         7.72902        -0.91986
C          9.95875         5.60764        -0.79826
C          9.93652         8.44895        -1.00133
C          8.67277        10.54805        -1.13645
C          8.62790        11.99249        -1.40386
C          9.92227         9.87052        -1.15778
C          9.94863        12.74998        -1.49571
C          8.70132        14.86578        -1.25112
C          8.64767        16.34055        -1.30381
C          9.91102        14.20879        -1.32309
C          9.99685        17.10300        -1.18174
C          8.66279        19.18984        -0.79510
C          9.90698        18.43042        -0.45502
C         11.07574         2.06507         0.09024
C         11.12976         3.41345        -0.44050
C         12.25952         1.46934         0.54540
C         12.35953         4.14461        -0.31933
C         11.16329         6.30780        -0.81646
C         11.19087         7.73327        -0.92444
C         12.43099         5.51469        -0.99008
C         12.42331         8.41155        -0.95282
C         11.16425        10.61211        -1.21168
C         11.19404        12.00292        -1.24759
C         12.47750         9.86984        -1.34212
C         12.40692        12.75787        -0.95855
C         11.23006        14.92616        -1.51858
C         11.19996        16.34324        -1.01842
C         12.42657        14.15245        -0.98354
C         12.48532        17.11955        -1.10441
C         11.20070        19.18998        -0.47494
C         12.40505        18.53403        -0.56964
C         13.48922         2.16872         0.59673
C         13.48671         3.56407         0.24353
C         14.67402         1.51501         0.98402
C         14.68471         4.41156         0.57866
C         13.67826         6.30901        -0.67932
C         13.66328         7.70004        -0.74798
C         14.92361         5.46565        -0.53046
C         14.88502         8.48808        -0.57620
C         13.63166        10.62300        -0.70319
C         13.59239        11.99512        -0.58523
C         14.85708         9.87337        -0.45678
C         14.74635        12.73315         0.05364
C         13.63200        14.90020        -0.62906
C         13.67558        16.32736        -0.63679
C         14.80768        14.20350        -0.27485
C         14.85968        17.03307        -0.34632
C         13.63953        19.19817        -0.32367
C         14.85209        18.49275        -0.24908
C         15.91513         2.21840         1.12539
C         15.91864         3.62343         0.90117
C         17.08488         1.52316         1.48833
C         17.11131         4.40721         1.19150
C         16.19609         6.26511        -0.28487
C         16.17255         7.77963        -0.42975
C         17.28222         5.70320         0.53319
C         17.35223         8.52199         0.03266
C         16.08527        10.62454        -0.21437
C         16.06133        12.01641        -0.11565
C         17.33310         9.93135        -0.03248
C         17.28030        12.75953        -0.02356
C         16.03935        14.89650        -0.12383
C         16.07430        16.33021        -0.14559
C         17.26025        14.17325         0.00118
C         17.30416        17.04966         0.07451
C         16.05945        19.17744        -0.00103
C         17.29012        18.49633         0.14084
C         18.34830         2.18374         1.97287
C         18.37352         3.68562         1.71377
C         19.59640         1.49555         1.47799
C         19.64239         4.35661         1.48513
C         18.46410         6.42185         0.72885
C         18.52486         7.82605         0.41567
C         19.65378         5.76179         1.23033
C         19.74032         8.54151         0.61927
C         18.55261        10.65969         0.10859
C         18.53491        12.06633         0.01502
C         19.77971         9.94729         0.39024
C         19.76484        12.80812         0.19406
C         18.55741        14.91665        -0.17192
C         18.52085        16.36969         0.20273
C         19.75320        14.16643         0.32922
C         19.74606        17.06787         0.40367
C         18.50527        19.19438         0.28822
C         19.74132        18.51477         0.40505
C         20.80683         2.15837         1.35533
C         20.86119         3.61547         1.46038
C         22.04658         1.47538         1.15710
C         22.08621         4.28542         1.51913
C         20.87164         6.46177         1.30255
C         20.92717         7.84762         1.01422
C         22.07763         5.75181         1.85963
C         22.16996         8.54631         1.08400
C         21.01358        10.62625         0.46882
C         21.06505        12.06834         0.02585
C         22.19892         9.91602         0.75739
C         22.25569        12.83920         0.53431
C         20.91718        14.90744         0.93284
C         20.96986        16.37618         0.59480
C         22.23129        14.18794         0.76338
C         22.19264        17.07025         0.70661
C         20.96725        19.20424         0.50914
C         22.19793        18.51681         0.62386
C         23.28474         2.13364         1.27194
C         23.32518         3.57546         1.52107
C         24.50205         1.44836         1.09094
C         24.54213         4.24409         1.70208
C         23.38422         6.43660         1.57009
C         23.40417         7.81837         1.34800
C         24.59518         5.68851         1.70238
C         24.65492         8.51146         1.37357
C         23.50470        10.59871         0.66831
C         23.53095        12.11546         0.54308
C         24.70278         9.92093         1.17261
C         24.72517        12.81565         1.02041
C         23.46227        14.93721         0.94138
C         23.43790        16.37308         0.89430
C         24.68264        14.25212         1.08722
C         24.66355        17.09617         0.94744
C         23.42465        19.21398         0.68976
C         24.66008        18.53926         0.82855
C         25.76047         2.06348         1.34463
C         25.79035         3.43346         1.99359
C         26.93764         1.38821         1.13994
C         27.08966         4.17413         1.71923
C         25.83320         6.37726         1.73326
C         25.86060         7.78623         1.60780
C         27.11102         5.64379         2.08124
C         27.10904         8.51146         1.62509
C         25.88964        10.65190         1.37633
C         25.86552        12.09230         1.35173
C         27.11882         9.92601         1.59100
C         27.07438        12.84978         1.70837
C         25.91845        14.98305         1.21267
C         25.90463        16.41635         1.09654
C         27.11924        14.29594         1.40736
C         27.13945        17.12971         1.11655
C         25.88747        19.23655         0.83088
C         27.13024        18.56566         0.94620
C         28.26698         1.98288         1.49881
C         28.23874         3.50110         1.49252
C         29.36219         1.41876         0.64584
C         29.59508         4.17843         1.56316
C         28.35786         6.36332         1.61363
C         28.34402         7.79457         1.57375
C         29.53623         5.67462         1.37452
C         29.56740         8.50461         1.44622
C         28.36999        10.61727         1.66152
C         28.36026        12.08819         1.83862
C         29.57490         9.92501         1.56967
C         29.58087        12.83054         1.42742
C         28.37710        14.99757         1.41465
C         28.37365        16.44234         1.25305
C         29.57902        14.30157         1.47725
C         29.61243        17.13893         1.12601
C         28.35884        19.25293         0.86660
C         29.59921        18.56986         0.91333
C         30.53430         2.13529         0.35652
C         30.65135         3.52661         0.70021
C         31.63016         1.48286        -0.27518
C         31.81760         4.23676         0.35270
C         30.74455         6.38378         1.05543
C         30.77601         7.79313         1.15883
C         31.89910         5.68624         0.56318
C         31.98896         8.51920         0.87032
C         30.90761        10.62860         1.73689
C         30.84703        12.07365         1.29629
C         32.05043         9.91607         1.04632
C         32.11709        12.83021         1.19029
C         30.89356        15.01393         1.65976
C         30.85651        16.44543         1.15416
C         32.08895        14.21336         1.18792
C         32.05889        17.13702         0.91971
C         30.82443        19.26129         0.78678
C         32.05961        18.57578         0.77848
C         32.84972         2.15724        -0.50100
C         32.92477         3.55090        -0.19953
C         33.97742         1.48259        -1.04841
C         34.24827         4.26490        -0.28578
C         33.02139         6.41160         0.14390
C         33.11232         7.81932         0.33337
C         34.06999         5.72261        -0.69389
C         34.31799         8.54084         0.02162
C         33.23303        10.64013         0.73373
C         33.28157        12.05346         0.88754
C         34.39874         9.93175         0.25073
C         34.57345        12.74109         0.82294
C         33.24611        14.94461         0.57657
C         33.31408        16.43244         0.83183
C         34.56432        14.23567         0.79806
C         34.51161        17.10951         0.70441
C         33.29407        19.24989         0.62407
C         34.52460        18.55202         0.60350
C         35.16356         2.17493        -1.43425
C         35.26624         3.58880        -1.16611
C         36.20783         1.51915        -2.09216
C         36.41791         4.31773        -1.53057
C         35.39607         6.44426        -0.74960
C         35.46988         7.82983        -0.49021
C         36.51736         5.73988        -1.22444
C         36.67983         8.53512        -0.77462
C         35.63813        10.63643        -0.00221
C         35.76296        12.03227         0.31301
C         36.75855         9.95497        -0.52401
C         36.95223        12.72824         0.09201
C         35.77930        14.95178         0.26360
C         35.83685        16.38284         0.85767
C         37.08211        14.17092         0.54605
C         37.02807        17.09395         0.26852
C         35.75130        19.21519         0.38319
C         36.97662        18.51440         0.14876
C         37.33165         2.28387        -2.72126
C         37.51424         3.66178        -2.13950
C         38.61747         1.50990        -2.81424
C         38.76688         4.32336        -2.26465
C         37.72910         6.44011        -1.49900
C         37.78646         7.83581        -1.30408
C         38.88720         5.71263        -1.96739
C         38.97259         8.59449        -1.83372
C         37.99726        10.65904        -0.74746
C         38.09400        12.05606        -0.43093
C         39.12677         9.97606        -1.24789
C         39.30191        12.77586        -0.68328
C         38.23357        14.92842        -0.06694
C         38.19338        16.36401        -0.08462
C         39.34790        14.21928        -0.54932
C         39.35544        17.08266        -0.53085
C         38.14042        19.20900        -0.24213
C         39.32811        18.51493        -0.56892
C         39.81473         2.13493        -2.81364
C         39.92924         3.56769        -2.62453
C         41.17056         4.21771        -2.69632
C         40.15286         6.36280        -2.09196
C         40.24829         7.78696        -1.86364
C         41.27973         5.58387        -2.44889
C         41.45704         8.47805        -1.86253
C         40.37784        10.63819        -1.36941
C         40.45155        12.07270        -1.14326
C         41.52267         9.86970        -1.68731
C         41.62275        12.80479        -1.43664
C         40.53180        14.93190        -0.94170
C         40.53797        16.38517        -0.91303
C         41.65639        14.19133        -1.34984
C         41.67413        17.13286        -1.28795
C         40.49728        19.22342        -0.95925
C         41.64976        18.53320        -1.30253
O         34.77575        13.58888         2.07332
O          9.22163        12.33149        -2.70660
O          9.31290        16.95948        -2.46921
O         23.74199        11.25630        -0.64333
O         16.58693         6.88603        -1.55321
O         27.68017        12.54139         3.04042
O          2.62544         8.95678         0.99456
O         17.50264         4.41398         2.64016
O         30.03192        12.29257         0.09403
O          8.77816         2.23108        -1.56647
O         12.50865         5.20817        -2.42760
H         13.39236         4.78421        -2.56155
O         25.76742         3.20574         3.43711
H         26.09327         4.03371         3.86230
O         37.35802        14.11493         1.97782
H         36.55662        13.69996         2.39464
O         28.59954         1.58094         2.87462
H         29.30739         2.20066         3.17990
O         21.23786        12.01846        -1.43671
H         22.13979        11.63829        -1.58865
O         11.40253        14.99738        -2.99553
H         10.61631        15.49632        -3.32620
O          9.73800        18.00749         0.96251
H          9.67087        18.82107         1.50649
O         30.03254         3.97221         2.96388
H         29.39261         4.46189         3.52843
O         38.64891         8.83297        -3.26924
H         39.41086         9.31757        -3.65382
O         33.55145         5.70021        -2.05898
H         33.44122         6.62821        -2.35495
O         21.94203         5.81645         3.33597
H         21.13248         5.31338         3.57147
O         34.80479         4.27638         1.06789
H         34.89108         3.34591         1.36420
O         33.01713        14.85012        -0.89063
H         32.13997        15.24804        -1.08137
O         31.06853        15.13140         3.12305
H         30.30478        15.63818         3.47249
O         14.36746         5.21876         1.76035
H         14.41324         4.63536         2.54724
O          4.83786         8.54871        -2.62656
H          5.66455         8.96513        -2.95473
O          5.00789         0.32475         0.97385
H          5.00137         0.81678         1.82026
O         31.20659        10.65167         3.16417
H         31.35563         9.72917         3.45924
O         15.12730         4.72311        -1.76402
H         15.62913         5.32615        -2.36171
O         35.69067        15.05352        -1.16999
H         34.73914        15.14880        -1.41919
O         27.18924         5.64974         3.56505
H         27.01275         6.56877         3.86273
O         12.70108        17.31261        -2.55112
H         12.53769        16.43507        -2.98449
O         18.33749         2.01521         3.43603
H         17.80168         2.76246         3.78918
O         12.76920         9.85603        -2.78726
H         12.64179        10.76940        -3.12298
O         36.90297         2.51146        -4.13419
H         36.06272         3.01790        -4.09713
O         14.47613        12.69768         1.51100
H         14.49421        11.75613         1.78648
O          2.50176         5.18234        -2.50842
H          2.71190         6.00220        -3.00423
O         20.64691        14.87164         2.38732
H         21.34159        15.40726         2.82681
O         36.03365        16.33180         2.29301
H         36.80033        15.72761         2.46612
O         18.75465        14.95145        -1.65091
H         18.95562        14.03429        -1.94089
H          0.48136         1.90146         1.16706
H          0.41786         4.19852         0.21885
H          2.58672         0.54965         0.98861
H          0.26091         5.82151        -1.05371
H          0.27216         8.16989        -0.44247
H          0.32245        10.13136        -0.10522
H          0.36826        12.55481        -0.14934
H          0.41453        14.41341         0.15771
H          0.44059        16.86300         0.17636
H          1.64831        19.00244        -0.03385
H          4.74214         0.66807        -1.03143
H          3.76169        20.25555        -0.38812
H          7.13477         0.30275         0.58850
H          6.19026        20.27340        -0.72465
H          9.84945         0.64992         1.21284
H          8.65864        20.28842        -0.72943
H         12.23098         0.42722         0.89678
H         11.18562        20.25007        -0.17132
H         14.64202         0.43997         1.21396
H         13.63412        20.27882        -0.11291
H         17.01283         0.43534         1.64053
H         16.04547        20.27606         0.06215
H         19.57193         0.39861         1.39117
H         18.49577        20.29475         0.28696
H         22.03399         0.38634         0.99869
H         20.96829        20.30455         0.49768
H         24.48373         0.39596         0.76747
H         23.41972        20.31200         0.61828
H         26.91631         0.36623         0.72931
H         25.88092        20.33004         0.70818
H         29.32356         0.34673         0.39784
H         28.35618        20.34474         0.72990
H         31.54094         0.41841        -0.53672
H         30.81496        20.35618         0.67899
H         33.89815         0.40738        -1.26516
H         33.29499        20.34339         0.50067
H         36.10629         0.45063        -2.33482
H         35.75235        20.31175         0.28789
H         38.55456         0.42156        -2.96220
H         38.12195        20.30700        -0.30843
H         40.74370         1.55801        -2.94029
H         42.06812         3.63931        -2.95929
H         42.26625         6.05811        -2.54095
H         42.40373         7.93311        -1.98681
H         42.51096        10.34636        -1.72357
H         42.52463        12.28345        -1.78449
H         42.58622        14.70568        -1.62700
H         42.60208        16.62357        -1.57986
H         40.47665        20.32227        -0.98427
H         42.55255        19.08510        -1.59956
