         280
 CSIRO Nanostructure Databank - Neutral Graphene Oxide Data Set
C        -11.15434         0.66744        -0.93278
C         -9.97314         1.40384        -0.34470
C         -8.70148         0.64344        -0.70571
C         -7.40093         1.36042        -0.52917
C         -6.14316         0.57542        -0.78335
C         -4.84219         1.32647        -0.71742
C         -3.51771         0.62997        -0.36384
C         -2.62251         1.47674         0.61680
C         -1.24993         0.80388         0.84638
C          0.03640         1.58722         0.79359
C          1.32633         0.82112         0.85609
C          2.52054         1.52508         1.45569
C          3.85767         0.77409         1.57994
C          5.24363         1.52664         1.71938
C          6.30472         0.79860         0.83500
C          7.65530         1.54532         0.70801
C          8.87697         0.78810         0.29127
C          9.72158         1.31241        -0.83847
C         11.03359         0.64586        -1.07743
C         -9.88339         2.90817        -0.52548
C         -8.70724         3.58116        -0.49877
C         -7.41281         2.84987        -0.58895
C         -6.17553         3.59638        -0.99306
C         -4.88037         2.85644        -0.78581
C         -3.76830         3.63364        -0.14521
C         -2.47266         2.89552         0.08243
C         -1.22499         3.65634         0.38563
C          0.02921         2.96216         0.82001
C          1.24251         3.76901         1.03078
C          2.47331         3.02496         1.47851
C          3.80206         3.76028         1.69730
C          5.13222         3.02706         1.34769
C          6.25547         3.70552         0.61304
C          7.62377         3.04961         0.33316
C          8.23809         3.42110        -1.01529
C          9.31344         2.55001        -1.56289
C         -8.60313         4.98077         0.11113
C         -7.33585         5.76497        -0.21733
C         -6.30240         5.13587        -1.13326
C         -4.85375         5.78736        -1.16300
C         -3.79952         5.12349        -0.25949
C         -2.51988         5.84234        -0.03543
C         -1.33699         5.13908         0.52911
C         -0.06345         5.90442         0.75030
C          1.20959         5.14952         1.00106
C          2.44819         5.97261         1.13297
C          3.75778         5.23058         1.17125
C          4.80207         5.79831         0.24027
C          5.88576         4.86275        -0.29994
C          7.14254         5.58459        -0.77123
C          8.05968         4.66890        -1.50646
C         -7.29885         7.10047        -0.01462
C         -6.32537         7.96188        -0.80416
C         -4.94994         7.30691        -0.91181
C         -3.75694         7.99606        -0.36226
C         -2.50963         7.23209        -0.08430
C         -1.32747         7.98509         0.06110
C         -0.01604         7.25462         0.02905
C          1.13647         8.14150         0.43282
C          2.41033         7.46138         0.79874
C          3.71992         8.16417         0.52145
C          4.84025         7.28114         0.01997
C          6.15369         8.00608        -0.31304
C          7.24333         7.06632        -0.83458
C         -6.24157         9.39286        -0.32097
C         -5.14243        10.01544         0.12762
C         -3.83717         9.30680         0.39322
C         -2.57784        10.08686         0.08002
C         -1.36826         9.42166        -0.02248
C         -0.10878        10.13798        -0.23225
C          1.09909         9.53962        -0.07754
C          2.38026        10.35382        -0.18245
C          3.67433         9.54392        -0.08999
C          4.74192         9.89597        -1.06625
C          5.85672         9.16718        -1.23088
C        -11.20961        -0.67333        -0.87755
C        -10.12184        -1.48846        -0.19207
C         -8.74538        -0.83968        -0.56236
C         -7.52301        -1.52810         0.02303
C         -6.21025        -0.91202        -0.50877
C         -4.94617        -1.61518        -0.16395
C         -3.74063        -0.78682         0.19677
C         -2.51587        -1.49981         0.67772
C         -1.23074        -0.70007         0.81208
C          0.03993        -1.41121         0.48445
C          1.32893        -0.67803         0.76977
C          2.55513        -1.47421         1.12882
C          3.86046        -0.71092         1.30625
C          5.12725        -1.58524         1.17108
C          6.43536        -0.72615         1.11558
C          7.67855        -1.44758         0.69771
C          8.96092        -0.70457         0.43129
C         10.14896        -1.44236        -0.08755
C         11.20605        -0.65458        -0.78046
C         -9.96689        -2.90357        -0.64204
C         -9.22232        -3.87424         0.10732
C         -7.41663        -3.05931        -0.18545
C         -6.31270        -3.68211         0.67623
C         -5.00872        -2.94489         0.55238
C         -3.75170        -3.76186         0.35196
C         -2.46116        -2.98445         0.56550
C         -1.28339        -3.64479         0.46996
C          0.00056        -2.89244         0.35268
C          1.19329        -3.69376         0.81873
C          2.54140        -2.95045         0.83486
C          3.70538        -3.44352        -0.00649
C          4.99002        -2.65071         0.06014
C          6.25241        -3.34613        -0.42175
C          7.58513        -2.61360        -0.28589
C          8.80973        -3.51977        -0.26752
C         10.02728        -2.91334        -0.28089
C         -9.06742        -5.20117        -0.57875
C         -8.30258        -6.22892        -0.25029
C         -6.29330        -5.11395         1.27079
C         -5.00906        -5.98098         1.14622
C         -3.73713        -5.10887         1.06316
C         -2.45000        -5.83829         0.92970
C         -1.27689        -5.15555         0.25262
C          0.02113        -5.86718         0.65086
C          1.19794        -5.06317         0.17630
C          2.39699        -5.70001        -0.39558
C          3.61769        -4.80393        -0.81195
C          4.94775        -5.58601        -0.83075
C          6.23839        -4.82021        -0.71589
C          7.50027        -5.60825        -0.62464
C          8.67794        -4.96317        -0.41017
C         -7.63038        -7.35161        -0.06736
C         -6.25404        -7.60888        -0.60848
C         -5.01259        -6.94906        -0.05173
C         -3.68236        -7.65114        -0.27430
C         -2.52641        -7.31320         0.63883
C         -1.25448        -8.09637         0.51918
C          0.05876        -7.36252         0.73005
C          1.40551        -8.12416         0.53147
C          2.64302        -7.13356         0.10180
C          3.64985        -7.80243        -0.81043
C          4.97285        -7.07690        -0.85501
C          6.21905        -7.85204        -0.46808
C          7.49163        -7.10112        -0.95431
C         -6.07590        -8.93580        -1.26209
C         -4.88735        -9.54501        -1.44844
C         -3.59940        -8.94057        -1.04306
C         -2.37603        -9.78223        -0.90719
C         -1.25493        -9.35211        -0.28348
C         -0.00047       -10.20120        -0.17676
C          1.28386        -9.39351        -0.32229
C          2.38218        -9.99928        -0.83912
C          3.63164        -9.24861        -1.12178
C          4.96123        -9.89042        -1.31121
C          6.12068        -9.26260        -1.03703
O         -3.29977         1.62589         1.86275
H         -3.04137         0.86753         2.44010
O         -2.85895        -5.27889         2.20813
O          5.08505        -6.34796        -2.09751
O         -1.00171         5.71768         1.84403
O         -4.26861         4.44747         0.96522
O         -4.05617         8.07793        -1.78185
O          3.32563         5.99995         2.32378
O          8.54694         3.68373         1.24932
O         -7.18102        -5.43817         2.01735
O         -5.73352        -2.90098         1.80089
O          0.07714        -2.06019        -0.83615
O          6.19621        -3.81399        -1.80177
O          8.75722         1.35407         1.62749
O          0.04735        -6.52702         1.92381
O         -3.51650        -0.98567         1.62265
O          4.22952         6.42281        -0.99513
O          8.87403         1.26710        -2.07301
H          7.37255        -2.42220        -2.25261
O          6.25376        -7.93450         0.97332
H          6.84832        -8.66694         1.23545
O          2.65599        -2.46113         2.20814
O          7.33614        -1.32423         2.09675
O         -8.69345        -0.24945        -1.86883
O          2.15708         2.21507         2.66918
O          1.27057        -5.30900        -1.27223
O          4.09160         9.31189         1.30336
O          6.12979         3.88930         2.03267
O         -4.93495        -6.79553         2.31534
H         -4.16119        -6.49409         2.85107
O          3.26045        -8.21300        -2.14601
O         -3.29633        -7.63993        -1.67852
O          3.77731        -0.17344         2.67437
O          5.73060         0.86021        -0.49697
H          6.33896         0.43506        -1.14276
O         -5.36049         3.18052        -2.11873
O          0.81160        -4.01009         2.18170
H          1.41348        -3.53497         2.80355
O         -6.85235         5.35566        -2.41812
O          4.03173        -2.34845        -0.96004
O         -5.38589         0.82120        -1.98508
O         -7.26096         2.11750         0.72175
O         -1.53905         3.17226        -0.98803
O          1.56998         8.09798         1.82101
O          3.34617        -6.86840         1.32874
H          2.97265        -7.53625         1.98219
O        -10.30253        -1.43154         1.22645
H        -10.29953        -0.47011         1.48723
O          1.66417         0.16249        -0.40179
O         -8.68902         4.77165         1.53285
H         -7.90454         4.25595         1.81631
O        -10.07319         1.26446         1.11824
H         -9.28734         1.72003         1.50295
O         -2.14363        -8.21725         1.69837
O          7.68746        -1.83077        -1.52581
O          3.42272        -4.43513        -2.17188
H          2.48034        -4.19722        -2.30626
O         -5.63516        -6.45090        -1.26725
O          5.31889         4.19480        -1.45246
H          4.84448         4.87120        -1.98798
O         -7.63528        -1.19540         1.41132
H         -6.91229        -1.63457         1.92726
O         -6.89656         8.02049        -2.13300
H         -6.96189         7.07325        -2.46051
O          2.38846        11.34226         0.85235
H          2.74200        10.90605         1.65989
O          1.74078        -8.68507         1.75900
O         10.03607        -1.09104         1.34896
O          6.65130         8.56543         0.91815
H          7.18988         7.87418         1.36452
O         -9.29979        -3.89619         1.46381
H         -9.63331        -3.01631         1.77598
O         -1.46945        -5.38221        -1.17088
H         -0.61462        -5.21919        -1.63784
O         -1.20146         0.00234         2.08822
O         -4.36564         5.58351        -2.48878
H         -5.19304         5.48235        -3.03991
O          0.26022         6.92760        -1.37259
H         -0.57867         6.67407        -1.81570
O         -5.45366        -1.64448        -1.51377
O         -3.85054        -4.06039        -1.06624
H         -3.03844        -4.55457        -1.36202
O          7.61550        -7.24689        -2.37058
H          6.80468        -6.84494        -2.76895
O          7.85255         6.34092         0.28197
H          8.42251         4.65682         1.20632
O         -0.03735       -11.27408        -1.11216
H          0.05256       -10.90362        -2.01409
O          3.88729         3.83217         3.13573
H          4.67423         4.37347         3.36488
O          5.65690         1.42922         3.06899
H          5.03508         1.95417         3.61912
O          5.20240        -2.38332         2.35926
H          5.12879        -1.77850         3.13094
O         -2.76166         0.48370        -1.57152
H         -3.39246         0.40632        -2.32349
O         -3.79293         8.96416         1.80885
H         -3.81733         9.79426         2.32867
O         -7.20104        -3.38235        -1.49770
H         -6.63057        -4.17594        -1.60174
H         12.15643        -1.15672        -1.01810
H         11.82558         1.21545        -1.58696
H         10.05808         3.05726        -2.21713
H          8.63586         5.03351        -2.37062
H          7.99337         7.51384        -1.52326
H          6.61197         9.46087        -1.97547
H          4.55794        10.76784        -1.71294
H          2.36895        10.89868        -1.16378
H         -0.16197        11.20422        -0.49819
H         -2.60704        11.18532         0.00309
H         -5.20079        11.07870         0.41365
H         -7.16870         9.97604        -0.43836
H         -8.13507         7.59791         0.50264
H         -9.49925         5.58506        -0.17688
H        -10.81533         3.46439        -0.33360
H        -11.96514         1.24221        -1.40406
H        -12.07433        -1.20979        -1.29554
H         -9.98347        -3.04807        -1.73479
H         -9.63068        -5.28777        -1.52816
H         -8.08839        -8.15957         0.53048
H         -6.99581        -9.46222        -1.55883
H         -4.86203       -10.55183        -1.89264
H         -2.36707       -10.76193        -1.41084
H         -0.00064       -10.65727         0.85024
H          2.28666       -11.01426        -1.26001
H          4.98226       -10.92858        -1.68020
H          7.06955        -9.79998        -1.19609
H          8.39305        -7.57875        -0.48879
H          9.61131        -5.54790        -0.38098
H         10.94889        -3.51097        -0.36106
