         324
 CSIRO Nanostructure Databank - Neutral Graphene Oxide Data Set
C          1.53424         2.24771        -2.86098
C          1.30515         3.31207        -1.96161
C          2.77696         1.66109        -2.89616
C          2.33577         3.87971        -1.21617
C          1.26976         6.27738         1.42312
C          1.42415         7.59492         1.84365
C          2.09154         5.79408         0.38737
C          2.48741         8.39979         1.38014
C          1.38634        10.53484         2.06256
C          1.31251        11.92083         1.99743
C          2.51839         9.83644         1.58966
C          2.40364        12.67557         1.52858
C          1.22598        14.96620         1.89300
C          1.22394        16.31784         1.91333
C          2.28408        14.14791         1.25532
C          2.27244        17.15766         1.29689
C          2.47738        18.55186         1.71983
C          3.86541         2.22987        -2.16500
C          3.70387         3.45422        -1.41776
C          5.11069         1.57816        -2.19009
C          4.90636         4.12258        -0.99386
C          3.11807         6.60875        -0.09663
C          3.46731         7.82638         0.51356
C          4.93797         5.55156        -0.79013
C          4.75973         8.46795         0.29503
C          3.65124        10.56735         1.14695
C          3.58375        11.98826         1.16834
C          4.83041         9.85310         0.65458
C          4.82932        12.75995         1.00136
C          3.50609        14.90830         0.76222
C          3.51675        16.41358         0.76784
C          4.80542        14.20733         0.77866
C          4.78591        17.13240         0.84731
C          3.63312        19.21373         1.44100
C          4.83606        18.53121         0.99512
C          6.24610         2.13018        -1.56806
C          6.15703         3.45577        -1.01510
C          7.48753         1.45344        -1.59410
C          7.35522         4.13769        -0.61489
C          6.00540         6.29608        -0.32145
C          5.95607         7.74087        -0.05491
C          7.27219         5.54243        -0.08601
C          7.20452         8.45520        -0.10598
C          6.03177        10.55808         0.40717
C          6.11715        12.00593         0.69745
C          7.17042         9.88669        -0.06532
C          7.25172        12.80334         0.21896
C          5.99494        14.89263         0.63748
C          6.03116        16.36478         0.84635
C          7.21305        14.18363         0.35555
C          7.30636        17.14165         0.68405
C          6.06008        19.25539         0.82715
C          7.29023        18.61755         0.56587
C          8.66750         2.11365        -1.22737
C          8.57787         3.49435        -0.80600
C          9.91229         1.40927        -1.25287
C          9.84213         4.24164        -0.69283
C          8.55115         6.32163         0.16222
C          8.50002         7.80311        -0.05608
C          9.84057         5.56800        -0.02390
C          9.67543         8.56362        -0.23110
C          8.31187        10.66677        -0.57536
C          8.40996        12.12243        -0.32915
C          9.63537         9.92479        -0.77588
C          9.60137        12.78736        -0.49694
C          8.42573        14.95122        -0.01445
C          8.48484        16.42999         0.12235
C          9.69372        14.16867         0.02761
C          9.76590        17.13366         0.25968
C          8.52167        19.26386         0.33032
C          9.77749        18.54982         0.27813
C         11.14230         2.01214        -0.94544
C         11.13988         3.48105        -0.75079
C         12.35824         1.31102        -0.85303
C         12.36830         4.08573        -0.21685
C         11.01024         6.01679         0.48139
C         10.99031         8.14519         0.15586
C         12.39031         5.46922         0.36286
C         12.18458         8.61293        -0.40854
C         10.90569        10.67112        -0.86047
C         10.84990        12.13671        -0.93799
C         12.12162        10.00115        -0.84873
C         12.18213        12.88054        -0.75224
C         10.99351        14.87600         0.23282
C         10.98088        16.35653         0.48000
C         12.25160        14.24040        -0.19924
C         12.29775        17.08197         0.49073
C         11.03236        19.22326         0.18777
C         12.28868        18.54723         0.22996
C         13.58940         1.96075        -0.50471
C         13.54352         3.40361        -0.24371
C         14.79181         1.31184        -0.29574
C         14.78269         4.17084        -0.19872
C         13.42273         6.36383        -0.38583
C         13.45086         7.87492        -0.42402
C         14.71447         5.61096        -0.59940
C         14.63148         8.50187        -0.82815
C         13.37201        10.71287        -0.98173
C         13.41716        12.07818        -0.78933
C         14.53147         9.88602        -1.49205
C         14.66249        12.80828        -0.80457
C         13.48547        14.90950        -0.08245
C         13.52340        16.29744         0.23881
C         14.71355        14.19656        -0.46313
C         14.77537        17.00682         0.43055
C         13.50810        19.19495         0.11530
C         14.79741        18.53672         0.54751
C         15.92101         2.06660         0.37833
C         15.95873         3.50844        -0.07879
C         17.27052         1.40785         0.35408
C         17.23330         4.14727        -0.55332
C         15.98699         6.36281        -0.66523
C         15.92313         7.81085        -0.87546
C         17.17979         5.66200        -0.54471
C         17.11515         8.49451        -1.11139
C         15.84358        10.69022        -1.64052
C         15.79499        12.16207        -1.36465
C         17.18952         9.92183        -1.56350
C         16.86777        13.00371        -1.68691
C         15.95039        14.88244        -0.50176
C         16.04915        16.26535         0.00344
C         17.09608        14.27003        -1.08910
C         17.20680        17.04440        -0.38894
C         16.03316        19.17019        -0.05400
C         17.23130        18.47159        -0.28929
C         18.43499         2.14535         0.43495
C         18.43840         3.57550         0.14506
C         19.68050         1.52046         0.80171
C         19.54848         4.35137         0.36175
C         18.43910         6.35022        -0.56719
C         18.39997         7.74870        -1.05218
C         19.60550         5.73439        -0.09111
C         19.70386         8.48672        -1.03295
C         18.48506        10.64553        -1.36299
C         18.69578        11.94719        -1.77272
C         19.68036         9.96507        -0.83231
C         19.80849        12.78884        -1.42317
C         18.42039        14.87350        -1.04040
C         18.44820        16.26993        -0.52500
C         19.64455        14.20904        -1.26405
C         19.71248        17.02052        -0.29720
C         18.47716        19.17235        -0.45866
C         19.72784        18.51180        -0.37933
C         20.80606         2.27149         1.12322
C         20.71342         3.75167         1.05415
C         22.02144         1.67850         1.55113
C         21.98020         4.55391         1.17922
C         20.88321         6.43337        -0.03013
C         20.97712         7.75162        -0.71284
C         22.00571         5.90561         0.56948
C         22.25750         8.52978        -0.67332
C         21.01239        10.71362        -0.84729
C         21.05265        12.14186        -1.18539
C         22.27884         9.98692        -0.84353
C         22.29106        12.80550        -1.25004
C         20.92893        14.97788        -1.27576
C         20.99270        16.28483        -0.54637
C         22.25579        14.27270        -1.42896
C         22.26927        17.00105        -0.28290
C         20.95737        19.16541        -0.34931
C         22.19800        18.46335         0.17750
C         23.21928         2.40517         1.73441
C         23.25593         3.82930         1.41387
C         24.41341         1.74954         2.12082
C         24.44857         4.49944         1.39009
C         23.28749         6.64705         0.62233
C         23.44769         7.92414        -0.08148
C         24.54444         5.94092         1.03550
C         24.66871         8.59205        -0.16237
C         23.49231        10.66994        -0.84381
C         23.52094        12.10366        -1.04461
C         24.72847         9.96218        -0.60255
C         24.78037        12.75434        -1.04229
C         23.55435        15.01516        -1.23519
C         23.55602        16.40945        -0.72519
C         24.82784        14.22420        -1.14846
C         24.71783        17.05906        -0.43891
C         23.50770        19.17951        -0.03858
C         24.70313        18.49665        -0.13744
C         25.64884         2.42975         2.23507
C         25.65844         3.87194         1.93780
C         26.85201         1.81782         2.62357
C         27.00933         4.56677         1.72918
C         25.82635         6.40912         0.35562
C         25.90526         7.90228         0.10832
C         27.08405         5.84054         0.97001
C         27.11792         8.50501        -0.16635
C         25.97212        10.62807        -0.66904
C         26.00029        12.04892        -0.87526
C         27.20955         9.90555        -0.52741
C         27.26778        12.72990        -0.84832
C         26.05872        14.88292        -0.69247
C         26.01230        16.31506        -0.20922
C         27.24919        14.18506        -0.69231
C         27.22819        17.09716        -0.67045
C         25.96781        19.16606         0.00404
C         27.19446        18.50918        -0.11778
C         28.11569         2.45939         2.45019
C         28.19061         3.72523         1.85206
C         29.36107         1.78436         2.77123
C         29.47211         4.22406         1.34112
C         28.27348         6.39914         0.64227
C         28.33633         7.62229        -0.23916
C         29.53265         5.62636         0.76671
C         29.64086         8.37618        -0.14537
C         28.45821        10.54792        -0.76773
C         28.48765        12.00149        -0.88688
C         29.66855         9.69609        -0.68412
C         29.72221        12.81665        -0.92730
C         28.48850        14.91968        -0.46086
C         28.48922        16.31963        -0.35430
C         29.72588        14.20655        -0.55240
C         29.68806        17.03589        -0.10519
C         28.41146        19.15068         0.16568
C         29.64954        18.45522         0.14864
C         30.58020         2.36651         2.55579
C         30.70622         3.63063         1.87523
C         31.89656         4.31120         1.68834
C         30.82283         6.32360         0.72994
C         30.84083         7.68699         0.18525
C         31.94906         5.61958         1.12169
C         32.08487         8.28818        -0.10943
C         30.92560        10.09700        -1.18602
C         30.94443        12.34620        -1.43284
C         32.12235         9.44097        -0.88038
C         32.15514        13.05399        -1.35469
C         30.95062        14.93784        -0.44146
C         30.93205        16.34226        -0.07797
C         32.16971        14.31969        -0.79776
C         32.10690        17.06200         0.22980
C         30.85593        19.12914         0.44830
C         32.06103        18.43324         0.49507
O          8.73153        10.18831        -1.89303
O         11.48301        12.80652        -2.07040
O         24.37932        14.82442        -2.43878
O         21.84131         7.74693        -1.90060
O         21.70376        16.09045         0.74205
O          2.52165        14.38104        -0.17928
O         23.90144         6.80207         1.99743
O         19.06328        16.42172         0.87099
O          5.77088        12.36121         2.07611
O         15.65965        16.40082         1.43473
O         10.62868         4.21798        -1.93999
O         13.76776         5.83898        -1.70247
O         21.55595        14.85652        -2.59074
O         11.64685        16.71090         1.75748
O         11.03472         7.21599         1.20867
O          8.25804        15.80059        -1.20876
O          3.79710         6.21285        -1.25960
O         21.05257         4.42630         2.31727
O         10.33250        14.15149         1.35830
O         26.26314         4.69712         2.99241
O         29.49074         4.44156        -0.12949
O          7.78324         5.76587         1.28380
O         17.78097        12.55650        -2.63803
O         16.54217        10.24827        -2.84011
O         19.17277         8.03042        -2.30334
O         20.22737        10.42701         0.42891
O          2.51823        16.97256        -0.12977
O          6.91473        16.67492         2.01281
O          1.82125         4.53253        -0.08306
O         30.99426        11.13141        -2.12201
O         25.76847         5.78888        -0.96948
H         26.55555         6.11646        -1.47412
O         15.55461         2.08136         1.81057
H         14.71871         2.59011         1.89269
O         12.90033         5.35727         1.72620
H         12.53276         6.11476         2.23419
O         17.36251         3.75159        -1.96204
H         16.61084         4.14673        -2.45395
O         14.10765         9.54944        -2.84546
H         14.92740         9.43350        -3.38202
O         27.15800        17.20608        -2.11546
H         27.94825        17.69552        -2.42446
O         14.93156        18.85029         1.97320
H         15.43891        18.10442         2.37366
O         26.12575        16.24901         1.24827
H         25.28590        15.89760         1.61174
O         22.02551        18.46867         1.62858
H         21.57696        17.61814         1.85844
O         28.30708         7.06603        -1.61191
H         29.01587         6.38675        -1.66669
H          0.69850         1.83458        -3.44151
H          0.27812         3.65549        -1.77976
H          2.95817         0.75548        -3.49119
H          0.46109         5.65040         1.81903
H          0.70564         8.00561         2.56501
H          0.50966         9.97803         2.41943
H          0.38327        12.42091         2.30309
H          0.42913        14.43606         2.43589
H          0.43287        16.84024         2.47405
H          1.65361        19.06929         2.23430
H          5.20769         0.63123        -2.74092
H          3.72296        20.27896         1.70163
H          7.53075         0.41914        -1.96491
H          6.02453        20.35405         0.88137
H          9.88837         0.33655        -1.49757
H          8.54655        20.36306         0.28198
H         12.36049         0.22211        -1.01262
H         11.03652        20.32072         0.10812
H         14.86691         0.22024        -0.41244
H         13.53081        20.27963        -0.07084
H         17.30905         0.32524         0.55220
H         16.08482        20.26812         0.01659
H         19.71306         0.42448         0.89677
H         18.45923        20.27211        -0.46874
H         22.04400         0.58818         1.70124
H         20.97131        20.26559        -0.39282
H         24.37671         0.67174         2.34011
H         23.52249        20.26527         0.14315
H         26.83801         0.76900         2.95575
H         25.96034        20.22883         0.29333
H         29.30455         0.79944         3.25718
H         28.40439        20.20875         0.47070
H         31.49812         1.85557         2.88225
H         32.83696         3.85890         2.03560
H         32.93937         6.09200         1.06261
H         33.02430         7.78705         0.15531
H         33.07149         9.83628        -1.26388
H         33.07082        12.59565        -1.74932
H         33.11675        14.87012        -0.73081
H         33.07587        16.54747         0.28054
H         30.83164        20.20841         0.65575
H         32.98956        18.96691         0.74126
