         234
 CSIRO Nanostructure Databank - Neutral Graphene Oxide Data Set
C          1.36277         1.93550         0.93494
C          1.26567         3.31642         0.67124
C          2.56768         1.28028         0.77989
C          2.37945         4.06055         0.28116
C          1.23055         6.33128         0.64727
C          1.22463         7.70195         0.63362
C          2.16962         5.49029        -0.19580
C          2.27454         8.49672         0.07702
C          1.07696        10.70622         0.39104
C          1.00619        12.05696         0.27826
C          2.29527         9.94252         0.13259
C          2.17516        12.89643        -0.06948
C          1.17436        15.09949        -0.90149
C          1.33013        16.46259        -1.11382
C          2.08006        14.40989        -0.05605
C          2.48179        17.16496        -0.66677
C          2.67856        18.54566        -0.96851
C          3.73007         2.00133         0.38312
C          3.63398         3.40995         0.13581
C          4.96432         1.33372         0.21902
C          4.83883         4.15073        -0.16908
C          3.47883         6.24417        -0.47887
C          3.44629         7.76441        -0.44058
C          4.77461         5.53649        -0.36266
C          4.74026         8.52117        -0.55054
C          3.47699        10.67238        -0.04441
C          3.50457        12.15543        -0.04851
C          4.74137        10.01564        -0.41279
C          4.83026        12.77896         0.26079
C          3.09589        15.17110         0.51486
C          3.47683        16.47911         0.10334
C          4.95449        14.04232         0.84395
C          4.76152        17.07512         0.37565
C          3.83389        19.16775        -0.57907
C          4.91689        18.44463         0.02864
C          6.15438         2.03506        -0.07888
C          6.11262         3.46882        -0.20887
C          7.38378         1.34924        -0.21854
C          7.32922         4.17795        -0.40031
C          6.02779         6.30034        -0.23724
C          6.00580         7.80251        -0.24859
C          7.32300         5.61487        -0.44415
C          7.25006         8.54994        -0.46276
C          6.04059        10.69757        -0.27778
C          6.05196        12.10647        -0.03027
C          7.23217         9.94690        -0.43631
C          7.26856        12.83127         0.08771
C          6.10192        14.85430         0.77968
C          5.97766        16.34806         0.90648
C          7.31311        14.19967         0.44703
C          7.30696        17.09386         0.93148
C          6.15308        19.14151         0.16104
C          7.35565        18.50927         0.49334
C          8.59775         2.04504        -0.40396
C          8.57752         3.48652        -0.46756
C          9.83743         1.37939        -0.54713
C          9.80057         4.20920        -0.53850
C          8.49776         6.32650        -0.67342
C          8.47918         7.80370        -0.80640
C          9.75532         5.63409        -0.79039
C          9.78344         8.55828        -0.77963
C          8.53376        10.66296        -0.43569
C          8.53308        12.12493        -0.17599
C          9.68982         9.82181         0.07820
C          9.76788        12.78443         0.31772
C          8.58553        14.91875         0.44308
C          8.63981        16.32805         1.00804
C          9.75996        14.25715         0.23450
C          9.86080        17.07863         0.50941
C          8.58531        19.18689         0.41682
C          9.84156        18.51023         0.45629
C         11.05063         2.09827        -0.47409
C         11.03151         3.52787        -0.28192
C         12.30596         1.46441        -0.64749
C         12.24280         4.15525         0.18930
C         10.90620         6.35240        -1.17000
C         11.07167         7.80042        -0.90316
C         12.31555         5.54934         0.72432
C         12.36588         8.39623        -0.39434
C         11.02439        10.53643         0.30783
C         11.04970        12.03972         0.43624
C         12.31646         9.81437         0.13070
C         12.33456        12.77362         0.26638
C         11.04591        14.94101        -0.10911
C         11.05274        16.39446         0.27771
C         12.32863        14.17521         0.17050
C         12.28939        17.08642         0.14553
C         11.05604        19.20479         0.28717
C         12.28287        18.51398         0.19084
C         13.50455         2.16869        -0.43300
C         13.45130         3.47487         0.17175
C         14.75546         1.67631        -0.86930
C         14.66452         4.08660         0.88135
C         13.59360         6.27245         0.38764
C         13.58261         7.61450         0.00097
C         14.80962         5.54865         0.50996
C         14.85571         8.33363        -0.13320
C         13.55453        10.62198         0.02468
C         13.55395        12.02117         0.14780
C         14.80195         9.87278        -0.13867
C         14.80620        12.75768        -0.03507
C         13.54377        14.91467         0.04479
C         13.52652        16.36121         0.02680
C         14.79431        14.21865        -0.06154
C         14.74383        17.08930        -0.02604
C         13.52734        19.20684         0.11053
C         14.72197        18.52171         0.02128
C         15.96898         2.30601        -0.51257
C         15.96766         3.18290         0.76404
C         17.12778         1.89183        -1.15030
C         17.30063         4.05848         0.99599
C         16.06736         6.23644         0.49272
C         16.11282         7.64640         0.25764
C         17.29609         5.55222         0.70095
C         17.33318         8.34349         0.37116
C         16.04928        10.60574         0.20344
C         15.99702        12.05541        -0.10809
C         17.32660         9.83903         0.31279
C         17.26590        12.73457        -0.36011
C         15.99662        14.95114        -0.14382
C         16.00872        16.38831        -0.09538
C         17.27079        14.24459        -0.36111
C         17.21609        17.10944        -0.20278
C         15.99936        19.33082         0.05856
C         17.24019        18.54566        -0.29202
C         18.45495         2.22429        -0.66626
C         18.50746         3.38544         0.34533
C         19.67973         1.92838        -1.42616
C         19.75493         4.14496         0.35561
C         18.51716         6.25846         0.84614
C         18.54990         7.69657         0.73363
C         19.74859         5.44369         0.91857
C         19.76331         8.54824         0.93282
C         18.59560        10.51228        -0.17253
C         18.51608        12.02175         0.06708
C         19.82223         9.89356         0.45885
C         19.77354        12.82283         0.13634
C         18.55216        14.94607        -0.15957
C         18.55180        16.43692         0.00648
C         19.75293        14.27953        -0.14500
C         19.68390        17.04326        -0.79319
C         18.38765        19.23013        -0.61647
C         19.61224        18.53665        -1.05166
C         20.87385         2.43660        -1.02278
C         20.95761         3.52359        -0.06399
C         22.18569         4.08353         0.34613
C         20.97602         5.85780         1.45299
C         20.91633         8.13256         1.65034
C         22.18280         5.18541         1.19879
C         22.08226         8.90248         1.76012
C         21.00357        10.67962         0.54320
C         21.04768        12.08490         0.12025
C         22.14803        10.15399         1.17476
C         22.20003        12.79362        -0.12352
C         21.02620        14.96284        -0.34457
C         21.00561        16.38452        -0.69611
C         22.18443        14.20444        -0.36105
C         22.12427        17.12459        -1.00786
C         20.88969        19.23977        -1.19465
C         22.05961        18.54076        -1.23606
O          6.50676        16.91618         2.15574
O          3.84847        14.56124         1.51899
O         14.94461         9.11386        -1.39076
O         20.97787         6.93057         2.35249
O          9.06123         8.44859        -2.02955
O          3.30693         7.02161        -1.72211
O          4.73282         9.32397        -1.75100
O         18.98001        12.46983         1.36235
O          2.86192        12.57332        -1.33448
O         15.91429         2.26988         1.80811
O          8.74418        11.57507        -1.54075
O         11.43600         6.09789         1.37631
O         11.70949         9.92768         1.46703
O         16.68751        10.37633         1.51811
O         17.31640        13.44947        -1.62981
O         19.33820        17.52327        -2.11078
O         10.26591        12.39342         1.64829
O         18.65451         2.02030         0.77963
O         12.05638         8.37953        -1.83868
O          5.97943         7.10140         1.05151
O         18.90398        16.69894         1.41067
H         18.31951        16.15527         1.98023
O         11.01139        14.97547        -1.59262
H         11.83034        15.42358        -1.89652
O          9.22954         9.36743         1.37472
H         10.01215         9.30949         1.97341
O          8.92071        16.12254         2.42232
H          8.05498        16.17171         2.89477
O         11.91144         5.79649        -1.85631
H         12.49313         6.54113        -2.16069
O         15.88187        20.49685        -0.76644
H         15.81699        20.20569        -1.69900
O          1.45524         5.32903        -1.45654
H          1.73942         6.08324        -2.02944
O         14.34652         4.09489         2.28539
H         14.78704         3.25879         2.62643
O         17.54877         3.98852         2.41206
H         17.11414         3.12781         2.68305
O         18.62909        10.28979        -1.60506
H         19.45228        10.67995        -1.96568
H          0.46614         1.37954         1.24204
H          0.28437         3.80314         0.75330
H          2.64650         0.19980         0.96690
H          0.37706         5.81931         1.11591
H          0.39940         8.21678         1.14880
H          0.16310        10.15430         0.65379
H          0.05818        12.56760         0.50563
H          0.34091        14.55826        -1.37021
H          0.58901        17.00664        -1.71662
H          1.89622        19.09795        -1.50798
H          5.00500         0.24273         0.35667
H          3.98797        20.23369        -0.80175
H          7.39811         0.25262        -0.13440
H          6.18083        20.20047        -0.13808
H          9.86133         0.28488        -0.64997
H          8.57719        20.26679         0.20360
H         12.34337         0.41458        -0.97420
H         11.05065        20.30391         0.24326
H         14.78626         0.74735        -1.46017
H         13.53748        20.30598         0.14308
H         17.04418         1.33202        -2.09691
H         16.12489        19.71048         1.11273
H         19.62204         1.21883        -2.26451
H         18.37146        20.33072        -0.62051
H         21.80337         2.11994        -1.51877
H         23.13170         3.60676         0.05401
H         23.11625         5.56519         1.63379
H         22.93083         8.49806         2.32620
H         23.05817        10.76022         1.26876
H         23.17335        12.28303        -0.14388
H         23.14850        14.68893        -0.56984
H         23.11952        16.65755        -0.99587
H         20.89170        20.33904        -1.23328
H         23.00792        19.07994        -1.37344
