         260
 CSIRO Nanostructure Databank - Neutral Graphene Oxide Data Set
C         30.26647        31.75635        -0.72193
C         30.32956        32.99281        -0.83687
C         30.45215        36.23100        -1.34791
C         30.53802        37.39924        -0.95518
C         30.41936        40.21742         0.41733
C         30.19422        41.33769         0.88576
C         32.60330        28.90084         0.02596
C         31.55403        29.48033        -0.26214
C         32.68452        31.68649        -0.05675
C         31.30296        30.91636        -0.14262
C         32.74281        33.20131        -0.34238
C         31.50197        33.82181        -1.13906
C         32.89718        36.05628        -1.28566
C         31.56891        35.27741        -1.44113
C         32.90365        37.54659        -1.00373
C         31.62508        38.28307        -0.65662
C         32.77997        40.34093         0.30085
C         31.57127        39.47204         0.00854
C         32.64065        41.68899         1.01322
C         31.21594        42.20851         1.56057
C         32.30631        44.37790         1.23492
C         31.29857        43.67045         1.20583
C         35.40310        27.53843        -0.24394
C         35.11889        28.75103         0.32240
C         33.85623        29.47132         0.62954
C         35.19499        31.59772         0.10190
C         33.94095        30.93890         0.12878
C         35.36761        32.88166        -0.72930
C         34.05675        33.73323        -1.06029
C         35.33359        35.99106        -0.34082
C         34.08928        35.25566        -0.75917
C         35.42784        37.47823        -0.41833
C         34.18163        38.23642        -0.60005
C         35.28611        39.93334         0.85950
C         34.09981        39.62805         0.08733
C         35.06881        42.01045         1.70982
C         33.84460        42.52773         1.42952
C         34.96493        44.84684         1.39956
C         33.71173        44.02931         1.46276
C         35.10557        46.25897         1.00090
C         37.72592        27.39621        -0.36936
C         36.40919        26.72947        -0.28514
C         37.67837        28.78297         0.25069
C         36.39565        29.44126         0.78917
C         37.64369        31.67477         0.79584
C         36.39741        30.91291         0.39017
C         37.84850        33.02249         0.13139
C         36.63908        33.74341        -0.39432
C         37.91438        35.97335        -0.20431
C         36.59758        35.22149         0.05240
C         37.95338        37.52064        -0.25803
C         36.59273        38.16286        -0.09785
C         37.74293        40.27579         0.84617
C         36.54516        39.47270         0.51798
C         37.65806        41.76499         1.18709
C         36.40482        42.65337         1.51774
C         37.44673        44.80426         0.38534
C         36.33878        44.14455         1.21216
C         37.42242        46.34411         0.22871
C         36.19665        46.81393         0.80194
C         40.25405        24.77227        -1.25366
C         39.19767        25.40658        -1.01140
C         40.26424        27.25631        -0.08208
C         39.02255        26.68214        -0.44140
C         40.25119        28.57351         0.62738
C         38.95820        29.36758         0.75833
C         40.25083        31.58843         0.68434
C         38.94945        30.86175         0.88994
C         40.24639        33.07845         0.84016
C         39.04262        33.77310         0.60717
C         40.25316        35.97747         0.91372
C         39.10311        35.22579         0.34475
C         40.29795        37.47288         0.73534
C         38.92070        38.12832         0.77494
C         40.29526        40.38050         0.54691
C         38.96007        39.65135         0.67054
C         40.01466        41.84339         0.15142
C         38.88534        42.56436         0.81097
C         40.05643        44.76013         0.24463
C         38.74076        44.01496         0.31557
C         40.26710        45.97918        -0.53785
C         38.30464        47.03948        -0.54548
C         40.09398        48.72181        -0.77782
C         38.92477        48.34517        -0.59855
C         42.83523        24.77664        -1.22984
C         41.54177        25.28572        -0.98824
C         42.79926        27.26434        -0.07966
C         41.53455        26.61374        -0.36563
C         42.84485        28.61294         0.56920
C         41.53812        29.30469         0.84389
C         42.82592        31.52516         0.94613
C         41.53528        30.80992         0.71863
C         42.74295        32.98961         1.14447
C         41.48655        33.73541         0.95727
C         42.75186        35.90719         0.54807
C         41.54522        35.21712         1.09021
C         42.73271        37.28167        -0.05701
C         41.54412        38.16534         0.28316
C         42.79992        40.22749        -0.36634
C         41.38830        39.58493        -0.31900
C         42.97473        41.55847        -0.65366
C         41.06590        42.62311        -0.23204
C         42.68565        44.60998        -0.13168
C         41.38696        43.96850         0.20678
C         42.61420        46.13702         0.19131
C         41.41852        46.69899        -0.60937
C         42.70465        48.62033        -1.17817
C         41.33914        48.07616        -1.38489
C         43.89044        25.39298        -0.93675
C         45.35407        27.29004         0.04919
C         44.04631        26.66774        -0.36098
C         45.31743        28.85787        -0.12215
C         44.10971        29.42253         0.60775
C         45.31458        31.64875         1.18254
C         44.03319        30.90756         0.79553
C         45.37160        33.10933         0.70013
C         44.04371        33.77868         0.86807
C         45.56766        35.98998        -0.32185
C         43.75278        35.03946         0.19493
C         45.40901        37.35174        -0.21210
C         44.06269        37.96686        -0.40835
C         45.35502        40.23425        -0.50220
C         44.04862        39.45977        -0.51420
C         45.32501        41.69016        -0.20047
C         44.13631        42.36750        -0.34006
C         45.25502        44.55871         0.41384
C         43.90910        43.76582         0.31779
C         45.25231        46.07000         0.06845
C         43.98458        46.84659        -0.05396
C         43.74766        48.07000        -0.82759
C         47.60462        27.63983        -0.70485
C         46.58839        26.93519        -0.80430
C         47.84042        28.96447        -0.17440
C         46.63869        29.52314         0.26148
C         47.89011        31.64455         0.78909
C         46.61452        30.87071         0.88752
C         47.90858        33.11971         0.48093
C         46.55231        33.79963         0.51738
C         47.90024        35.90686         0.21739
C         46.70091        35.23001         0.16943
C         47.93015        37.29695        -0.41447
C         46.64926        38.12137        -0.15909
C         47.84173        40.20388        -0.84500
C         46.62865        39.48105        -0.31999
C         47.87942        41.71321        -0.46796
C         46.61380        42.43492        -0.10520
C         47.97121        44.69124         0.36126
C         46.59590        43.84434         0.44195
C         47.59480        45.74105        -0.65260
C         46.55312        46.39725        -0.51728
C         50.42094        29.13775        -0.20843
C         49.12846        29.57895         0.04242
C         50.26091        31.53285         1.18609
C         49.17802        30.92791         0.56109
C         50.31039        33.02080         1.39845
C         49.08125        33.84533         1.12995
C         50.45993        35.96426         0.41990
C         49.19477        35.13590         0.31983
C         50.52274        37.26615        -0.08414
C         49.22725        38.06282        -0.14881
C         50.27638        40.31235        -0.97339
C         49.14058        39.52753        -0.44607
C         50.42761        41.66345        -0.69327
C         49.21240        42.33999        -0.12412
C         50.52317        44.37384        -0.23315
C         49.21098        43.84058         0.15593
C         51.61657        29.57324        -0.42854
C         52.80512        31.77035         0.27309
C         52.11648        30.53535         0.46391
C         52.73893        32.85688         0.88434
C         51.65427        33.75739         1.26630
C         52.91613        35.88493         0.42169
C         51.68542        35.21199         0.89073
C         52.86735        37.12048         0.25517
C         51.83000        37.95092        -0.25520
C         53.00764        40.19978        -0.68646
C         52.08564        39.14537        -0.93088
C         52.78955        41.43516        -0.85207
C         51.72046        42.34300        -0.75164
C         51.57374        43.72034        -0.41987
O         35.67391        32.13302        -1.87980
O         37.82754        44.08515        -0.82215
O         38.67517        42.16204         2.18827
O         43.70096        28.66299         1.77674
O         32.67339        41.60304        -0.44040
O         31.75890        31.40433         1.12928
O         47.19156        42.50731        -1.48439
O         40.72032        35.62938         2.23902
O         44.78868        46.92662         1.13994
O         37.68550        33.28673        -1.29056
O         34.27538        35.62183         0.63884
O         33.06538        37.00566        -2.36293
O         34.34415        44.57290         2.65836
O         40.91772        31.19927        -0.57024
O         43.18551        37.37470        -1.43406
O         35.14661        40.65101         2.03570
O         49.16889        39.05365         0.93775
O         45.91658        44.17019         1.67240
O         49.33119        42.86028         1.23530
O         31.61066        34.28465        -2.48302
O         48.35160        33.25602        -0.94550
O         49.47431        33.61115         2.47534
O         44.54829        35.25603        -0.93259
O         49.26587        34.44140        -1.03318
O         43.52032        33.63157         2.20778
O         39.17128        46.25235        -1.36706
O         44.72935        39.86863        -1.78134
O         38.89022        30.00295         2.06321
O         37.71126        28.62217        -1.18599
O         41.90586        42.20426        -1.24596
O         51.78667        34.77580         2.27166
O         40.78501        44.47461         1.43892
O         38.88197        35.44770        -1.12297
O         47.45263        31.13208         2.08184
O         51.09266        39.59792        -1.85168
O         41.22152        38.06952         1.69490
O         36.77460        43.65773         2.50643
O         34.39444        39.47365        -1.33395
O         40.89872        28.61534         1.95002
O         51.30746        30.70991         1.66348
O         31.19027        42.04395         2.94436
H         30.36975        42.42932         3.31341
O         42.32981        46.34947         1.57943
H         43.17127        46.25964         2.08141
O         43.54957        43.36946         1.66281
H         44.35143        43.45941         2.23299
O         38.37462        37.78829         2.06492
H         39.04304        38.01783         2.74641
O         47.97661        37.06833        -1.84698
H         47.13886        36.64538        -2.13315
O         32.66445        33.82449         0.94395
H         32.06725        33.27758         1.50553
O         40.88332        40.53253         1.85397
H         40.24507        41.04594         2.40696
O         38.45852        37.90555        -1.54616
H         37.92766        37.47784        -2.24949
O         48.14909        45.34776         1.59650
H         48.71732        44.80385         2.18023
O         45.07138        29.13977        -1.51677
H         45.77277        28.70003        -2.04664
O         37.33357        32.05481         2.17123
H         37.39510        31.22603         2.70798
O         33.90173        33.64190        -2.46468
H         34.53842        32.93787        -2.78262
O         45.20534        31.76367         2.62189
H         45.38076        30.88609         3.02251
O         45.64292        26.96830         1.38273
H         45.40570        26.03613         1.56249
O         40.88017        39.46972        -1.64517
H         41.54310        39.00718        -2.20156
O         47.79262        40.12415        -2.27780
H         47.04138        40.67833        -2.58734
O         36.58909        35.15767         1.50364
H         35.65020        35.11055         1.80222
O         41.07607        47.87440        -2.74324
H         40.21532        47.40827        -2.82995
O         33.67096        29.50662         2.05975
H         32.84810        30.02712         2.22670
O         36.40257        29.36237         2.23095
H         35.46897        29.46477         2.54655
