         404
 CSIRO Nanostructure Databank - Neutral Graphene Oxide Data Set
C          2.06511         2.42940        -3.60365
C          2.00819         3.81496        -3.40287
C          3.17237         1.70214        -3.19397
C          3.06156         4.50580        -2.77538
C          1.93555         6.72705        -2.99321
C          1.90019         8.09806        -2.77234
C          3.01955         5.94310        -2.55512
C          2.92724         8.75594        -2.06737
C          2.00646        11.00310        -2.52959
C          1.91808        12.39029        -2.26273
C          2.87693        10.18566        -1.84044
C          2.82779        13.03818        -1.42794
C          1.66199        15.24918        -1.64360
C          1.63379        16.62448        -1.46124
C          2.77950        14.47818        -1.24797
C          2.73212        17.30006        -0.88801
C          2.72988        18.72462        -0.71338
C          4.25932         2.35666        -2.55959
C          4.20202         3.77046        -2.33683
C          5.41051         1.63362        -2.16419
C          5.29301         4.43138        -1.68685
C          4.09738         6.58949        -1.87646
C          4.03555         7.98714        -1.59687
C          5.24063         5.84013        -1.45355
C          5.09503         8.61173        -0.86149
C          3.65406        10.77441        -0.68224
C          3.88953        12.27288        -0.81338
C          4.91491         9.97662        -0.33936
C          4.98475        12.91472        -0.23599
C          3.88493        15.12845        -0.63982
C          3.87103        16.54617        -0.47560
C          5.01405        14.36859        -0.18685
C          5.00019        17.21609         0.07862
C          3.81622        19.37250        -0.19380
C          4.99539        18.64746         0.19617
C          6.49819         2.27414        -1.55586
C          6.44071         3.69250        -1.28454
C          7.67725         1.55196        -1.24020
C          7.52948         4.34409        -0.64722
C          6.33970         6.49945        -0.83515
C          6.27540         7.90739        -0.55598
C          7.47939         5.74988        -0.42525
C          7.45076         8.58701        -0.04218
C          6.15489        10.69413         0.16344
C          6.15595        12.17150         0.22179
C          7.43927         9.97313         0.19423
C          7.28828        12.80497         0.69775
C          6.10942        15.04117         0.37119
C          6.13573        16.46540         0.48872
C          7.20849        14.26105         0.96587
C          7.31679        17.16043         0.91723
C          6.14369        19.31028         0.63989
C          7.32847        18.59258         0.94220
C          8.79124         2.18343        -0.67540
C          8.72649         3.59152        -0.31977
C          9.98475         1.45962        -0.44854
C          9.81144         4.20465         0.29778
C          8.60807         6.43486         0.14613
C          8.63724         7.81533         0.24061
C          9.60134         5.58410         0.90109
C          9.95421         8.54279         0.42050
C          8.61078        10.68062         0.66033
C          8.52594        12.07771         0.95873
C          9.82759         9.97806         0.87382
C          9.68909        12.74934         1.42044
C          8.42876        14.99904         1.43497
C          8.52136        16.46207         1.20210
C          9.66207        14.19740         1.71230
C          9.75323        17.14764         1.23616
C          8.53921        19.26712         1.23899
C          9.76540        18.59469         1.29023
C         11.13814         2.08871         0.04116
C         11.05677         3.49169         0.45233
C         12.34722         1.36473         0.16328
C         12.20538         4.12888         0.90373
C         10.89076         6.31014         1.30404
C         11.03048         7.78155         1.16424
C         12.16650         5.51390         1.41968
C         12.20883         8.43849         1.47855
C         10.98416        10.64250         1.31862
C         10.92228        12.05127         1.55891
C         12.24250         9.90711         1.50098
C         12.15246        12.77411         1.76693
C         10.97577        14.95445         1.73066
C         10.97992        16.36105         1.26526
C         12.20963        14.15668         1.63672
C         12.14909        16.83350         0.71686
C         10.96557        19.39267         1.52544
C         12.19617        19.08465         0.97366
C         13.56591         2.01153         0.46012
C         13.50815         3.48030         0.63738
C         14.79583         1.35208         0.52294
C         14.78666         4.18971         0.93959
C         13.44834         6.24704         1.69893
C         13.45968         7.72652         1.73307
C         14.75074         5.52378         1.59985
C         14.67522         8.38476         1.85184
C         13.40772        10.56471         1.82568
C         13.40247        12.02741         2.00123
C         14.69305         9.85282         2.21397
C         14.72717        12.77749         1.94549
C         13.45188        14.84175         1.41026
C         13.41335        16.15927         0.88033
C         14.70160        14.20137         1.54926
C         14.61922        16.81458         0.58850
C         13.47454        19.65413         1.26435
C         14.67296        19.07942         0.80099
C         16.03323         2.02395         0.81592
C         16.03639         3.42629         1.05783
C         17.26054         1.33091         0.89610
C         17.22588         4.12616         1.35735
C         16.00992         6.28668         1.59620
C         15.95083         7.69450         1.76304
C         17.21808         5.57625         1.54142
C         17.17334         8.41562         1.69282
C         15.95932        10.57630         1.76161
C         15.97733        12.01605         1.68998
C         17.15565         9.85912         1.63117
C         17.14391        12.72623         1.47004
C         15.89815        14.92922         1.37176
C         15.87459        16.29112         0.95583
C         17.17432        14.20747         1.53366
C         17.09610        17.09057         0.79070
C         15.99867        19.40224         1.12322
C         17.12997        18.57019         0.80883
C         18.46384         2.00874         1.20132
C         18.43973         3.41905         1.42023
C         19.71712         1.32121         1.19589
C         19.66814         4.13253         1.82081
C         18.45250         6.28993         1.63486
C         18.41488         7.71507         1.61658
C         19.70052         5.60776         1.70153
C         19.65299         8.41660         1.47943
C         18.39884        10.53094         1.34663
C         18.42086        12.01032         1.29992
C         19.59304         9.83559         1.24233
C         19.58103        12.73217         0.62486
C         18.42594        14.96576         1.09557
C         18.29323        16.40155         0.73879
C         19.45341        14.19706         0.35217
C         19.57084        17.08142         0.49169
C         18.37007        19.22247         0.68404
C         19.59257        18.54831         0.42128
C         20.94121         1.96637         1.42129
C         20.95981         3.37110         1.90948
C         22.15526         1.31311         1.16696
C         22.28662         4.13118         2.04767
C         20.92231         6.31204         1.65366
C         20.88758         7.72796         1.51830
C         22.21558         5.61437         1.65349
C         22.15574         8.51034         1.49992
C         20.76498        10.46142         0.57545
C         20.69557        11.86145         0.07301
C         22.11183         9.89133         0.91369
C         21.98935        12.47165        -0.33764
C         20.25487        14.88047        -0.52883
C         20.66519        16.28748        -0.26004
C         21.97276        13.57542        -1.16885
C         21.85510        17.05793        -0.74292
C         20.81223        19.15993         0.15745
C         21.97018        18.40981        -0.25559
C         23.40227         1.99996         1.17501
C         23.46354         3.41087         1.42626
C         24.58956         1.30666         0.88906
C         24.67701         4.08454         1.33589
C         23.39591         6.29212         1.51365
C         23.50632         7.80610         1.67315
C         24.69001         5.55443         1.53970
C         24.64228         8.42876         0.84338
C         23.35244        10.52364         0.38609
C         23.26516        11.84916        -0.13573
C         24.56889         9.82005         0.37204
C         24.45017        12.53652        -0.56003
C         23.12692        14.28570        -1.50703
C         23.01854        16.49736        -1.32779
C         24.38899        13.88587        -1.08435
C         24.33426        16.96550        -1.08760
C         23.22445        19.04187        -0.32152
C         24.40855        18.33045        -0.63794
C         25.83775         1.96426         0.86327
C         25.89366         3.38782         1.05163
C         27.01901         1.20523         0.64549
C         27.16366         4.05742         0.99928
C         25.94306         6.29330         1.12365
C         25.79770         7.70728         0.66508
C         27.20330         5.51274         0.88804
C         26.93660         8.31483        -0.05794
C         25.73490        10.48470        -0.16075
C         25.67528        11.83219        -0.57653
C         26.98369         9.77018        -0.27914
C         26.83555        12.48575        -1.23003
C         25.55318        14.72928        -1.25641
C         25.54437        16.15192        -1.24976
C         26.80607        13.97757        -1.47811
C         26.82369        16.84667        -1.17169
C         25.66041        18.97260        -0.60147
C         26.84505        18.27327        -0.90780
C         28.27626         1.80809         0.60032
C         28.32471         3.24195         0.80990
C         29.47459         0.97269         0.56473
C         29.61042         3.84521         0.99077
C         28.35171         6.27610         0.63072
C         28.25198         7.57139        -0.07983
C         29.67661         5.87916         0.99660
C         29.48962         8.34241        -0.29246
C         28.18208        10.39913        -0.60488
C         28.17179        11.77854        -1.14951
C         29.44647         9.68932        -0.57655
C         29.43919        12.56156        -1.18290
C         28.12606        14.72765        -1.52752
C         28.06951        16.18090        -1.26279
C         29.41064        13.99967        -1.34041
C         29.30255        16.88839        -1.16350
C         28.06092        18.98296        -0.90242
C         29.29528        18.32372        -1.05522
C         30.70264         1.41163         0.07888
C         30.75315         3.56694         0.27006
C         32.04682         0.99235         0.25845
C         32.01834         4.19858         0.43922
C         30.86534         6.38251         0.48132
C         30.74950         7.53287        -0.49744
C         32.08628         5.60542         0.50938
C         32.03038         8.35956        -0.50869
C         30.69716        10.45694        -0.67907
C         30.63534        11.88753        -0.93942
C         31.91681         9.83826        -0.48661
C         31.91479        12.57626        -1.17342
C         30.58124        14.76234        -1.29615
C         30.55531        16.20326        -1.21780
C         31.88883        14.10217        -1.39330
C         31.77300        16.93759        -1.19506
C         30.50618        19.04422        -1.10198
C         31.74415        18.37698        -1.19137
C         33.18181         1.85508         0.07937
C         33.22373         3.33628         0.41672
C         34.38905         1.22128        -0.23690
C         34.57179         4.06604         0.46751
C         33.35977         6.26784         0.31101
C         33.31406         7.70453        -0.10157
C         34.57471         5.59524         0.38681
C         34.51080         8.55448         0.07196
C         33.12143        10.64347        -0.06100
C         33.17429        12.00559        -0.70023
C         34.44859         9.92595        -0.10911
C         34.34752        12.73943        -0.70800
C         33.12555        14.84964        -1.14448
C         33.05374        16.27999        -1.15762
C         34.34577        14.17232        -0.94046
C         34.24622        17.02795        -1.19583
C         32.95519        19.10707        -1.24598
C         34.20340        18.45646        -1.25065
C         35.62680         1.90096        -0.44756
C         35.71659         3.26629        -0.07065
C         36.82244         1.13798        -0.77526
C         37.00014         3.85386         0.04793
C         35.78985         6.42387         0.30489
C         35.76739         7.84564         0.11776
C         37.08143         5.90645         0.50930
C         36.96764         8.57535         0.00508
C         35.64571        10.71821        -0.17788
C         35.61668        12.08638        -0.43074
C         36.95674        10.06620         0.17102
C         36.85034        12.85500        -0.48812
C         35.56941        14.90634        -0.83410
C         35.53715        16.32551        -1.18746
C         36.82179        14.29946        -0.56804
C         36.83398        17.14084        -0.97644
C         35.41302        19.20402        -1.19641
C         36.65485        18.61123        -0.95117
C         37.96121         1.71193        -1.32235
C         38.04407         3.75181        -0.84104
C         39.35246         1.31404        -1.28519
C         39.33285         4.38468        -0.74857
C         38.25968         6.51368         0.01000
C         38.20762         7.91672        -0.17552
C         39.43258         5.76678        -0.39283
C         39.41014         8.62735        -0.51693
C         38.14412        10.73915        -0.46341
C         38.07530        12.18241        -0.56675
C         39.32416        10.06434        -0.68781
C         39.30417        12.92246        -0.49729
C         38.02471        15.06601        -0.29337
C         38.00864        16.50206        -0.33742
C         39.24246        14.28512        -0.07551
C         39.06390        17.41243         0.06973
C         37.79135        19.39794        -0.72906
C         38.98602        18.82076        -0.26045
C         40.41636         2.18805        -1.35162
C         40.45452         3.63579        -1.19748
C         41.68116         4.34126        -1.31707
C         40.63006         6.47675        -0.69709
C         40.61711         7.93033        -0.68636
C         41.75286         5.71386        -1.12311
C         41.81868         8.71189        -0.93471
C         40.51178        10.83977        -1.22231
C         40.54315        12.22321        -0.59400
C         41.79332        10.05175        -1.11502
C         41.70666        12.82392        -0.12704
C         40.41689        14.75341         0.56562
C         40.22431        17.06940         0.82755
C         41.62402        14.06028         0.53430
C         41.26274        17.95280         1.10467
C         40.07378        19.70907        -0.00503
C         41.20806        19.28392         0.64988
O          7.37897        14.62152         2.39348
O         20.15417         3.58060         3.11919
O         32.00030        13.16524        -2.51008
O         20.66851        16.46956         1.21641
O         14.56620        18.01108        -0.12010
O         20.39491        10.73891        -0.83295
O         27.42138        14.34023        -2.75693
O         40.34586        15.83087         1.45339
O         22.11915         9.69681         2.37924
O         30.65643         2.58514        -0.71551
O         25.60290         6.07570         2.54837
O         22.90069        15.44240        -2.24986
O         14.10272        12.47871         3.23809
O         12.15681        18.04256         0.01272
O         27.37077        11.78426        -2.39033
O         36.46107        16.61874        -2.29273
O         14.25073         4.22310        -0.43714
O         33.97653         3.52278         1.68318
O          5.18083        10.06919         1.10193
O         18.14113        14.72432         2.50244
O         37.19966         4.68021         1.16688
O         20.77658        14.15898        -1.61038
O         32.93165         7.84671        -1.56537
O         37.78972         2.96165        -1.97735
O         27.34634         7.53569        -1.23860
O         10.26125        14.63793         2.97102
O         19.54046        12.55295         2.08450
O         11.30713         5.75696         2.60124
O         14.06988         5.60337         2.88834
O         29.74029         4.85692         1.96759
O         14.74094         9.87609         3.67624
H         14.61609        10.81955         3.94805
O         10.48085         8.63118        -0.96751
H          9.81640         9.11843        -1.50028
O          8.87232         5.31422         2.14424
H          9.55787         5.14830         2.83541
O         22.60872         4.14665         3.46466
H         21.75168         4.19119         3.95042
O          2.75687        10.63966         0.46420
H          3.33449        10.61398         1.26336
O         32.88392        10.90594         1.38240
H         33.72429        11.24840         1.75792
O         30.57171         6.93881        -1.81111
H         31.45093         6.97730        -2.25931
O         37.10991        10.30348         1.62975
H         37.95206         9.88091         1.90422
O         40.28460        11.05332        -2.65478
H         40.18943        10.17223        -3.07362
O         23.89087         7.98513         3.05883
H         23.49321         8.83566         3.35795
H          1.22378         1.92028        -4.09415
H          1.11561         4.35558        -3.74434
H          3.22000         0.61635        -3.35856
H          1.09370         6.26203        -3.52285
H          1.02942         8.66470        -3.12755
H          1.36638        10.59185        -3.32275
H          1.15798        12.96958        -2.80329
H          0.78542        14.75738        -2.08664
H          0.74866        17.19970        -1.76911
H          1.83794        19.29118        -1.01857
H          5.46020         0.55204        -2.35952
H          3.80988        20.46630        -0.07935
H          7.72731         0.47886        -1.47806
H          6.15175        20.40908         0.69534
H         10.02490         0.39480        -0.72217
H          8.52601        20.36433         1.31863
H         12.34504         0.28558        -0.05133
H         10.85357        20.30939         2.12410
H         14.82353         0.26557         0.35056
H         13.52784        20.48269         1.98440
H         17.28554         0.24667         0.71405
H         16.21038        20.38305         1.57643
H         19.72929         0.25975         0.90538
H         18.38640        20.32157         0.73447
H         22.14012         0.25181         0.87684
H         20.90198        20.25411         0.22571
H         24.55072         0.22178         0.71238
H         23.30905        20.09717        -0.02459
H         26.92955         0.11606         0.52340
H         25.71804        20.03661        -0.33007
H         29.40122        -0.02702         1.01917
H         28.04384        20.07282        -0.75657
H         32.25933        -0.07154         0.45198
H         30.48292        20.14280        -1.06028
H         34.36798         0.13524        -0.41527
H         32.91875        20.20618        -1.25132
H         36.85328         0.08602        -0.45257
H         35.35299        20.30227        -1.22481
H         39.57980         0.23881        -1.21012
H         37.72985        20.48981        -0.84533
H         41.41446         1.72127        -1.40761
H         42.58308         3.79629        -1.63292
H         42.70695         6.22100        -1.32378
H         42.78703         8.19057        -0.95582
H         42.73645        10.57561        -1.33083
H         42.67259        12.30381        -0.17822
H         42.49777        14.47440         1.05333
H         42.11384        17.59975         1.70074
H         39.96858        20.75822        -0.31459
H         42.03575        19.97542         0.85588
