         671
 CSIRO Nanostructure Databank - Neutral Graphene Oxide Data Set
C          5.83302        31.78875         1.44687
C          5.82686        33.14092         1.28941
C          8.18968        27.35109         1.10317
C          8.14416        28.78979         0.64719
C          7.00748        29.61725         1.22021
C          8.14903        31.69928         0.46508
C          6.99782        30.97554         1.13113
C          8.24010        33.17187         0.82994
C          7.04458        33.89638         1.01901
C          8.29129        36.02331         0.96405
C          7.06983        35.30953         1.05494
C          8.34776        37.46442         0.87347
C         10.51347        23.03816         1.01507
C         10.60727        24.44901         0.86720
C          9.45285        25.21454         1.19414
C         10.64175        27.34544         0.67421
C          9.36288        26.63340         1.05205
C         10.64884        28.81956         1.01878
C          9.46198        29.50427         0.85253
C         10.75830        31.69096         0.84458
C          9.46984        30.94933         0.59821
C         10.69046        33.13387         1.08043
C          9.48859        33.85583         0.94237
C         10.77107        35.99829         0.99597
C          9.50650        35.29745         1.00235
C         10.79543        37.44565         0.83090
C          9.54066        38.15168         0.78030
C         10.86459        40.30179         0.31377
C          9.54744        39.67189         0.73705
C         10.90422        41.62327        -0.10028
C         13.30923        18.92636         0.21497
C         13.39744        20.39816         0.57357
C         12.03676        20.98771         0.94356
C         13.26293        23.33475        -0.27952
C         11.51380        22.16444         0.47526
C         13.13702        24.65488         0.30822
C         11.88582        25.15958         0.66723
C         13.10580        27.25884         1.53297
C         11.84061        26.56143         1.16287
C         13.10403        28.75568         1.64873
C         11.88232        29.50910         1.28441
C         13.19290        31.60274         1.27513
C         11.95087        30.91255         1.26437
C         13.14722        33.04157         1.01857
C         11.94263        33.81509         1.53491
C         13.25049        35.93513         1.02172
C         11.94837        35.27758         1.16658
C         13.28716        37.41725         0.79325
C         12.01125        38.15405         0.73683
C         13.31690        40.17197         0.02391
C         12.07657        39.54833         0.40007
C         13.34834        41.49995        -0.38298
C         12.13763        42.26861        -0.43852
C         13.42781        44.31773        -0.99783
C         12.18811        43.62727        -0.80203
C         13.45571        45.72366        -1.18898
C         15.62991        14.66916        -0.32867
C         15.69539        16.07961        -0.55755
C         14.53065        16.81160        -0.22583
C         15.72959        18.97693        -0.16359
C         14.45049        18.22987        -0.12181
C         15.70413        20.43347        -0.32912
C         14.33308        21.09613        -0.48849
C         15.68528        23.35517        -0.35096
C         14.41348        22.60818        -0.33785
C         15.68653        24.85054        -0.00223
C         14.38086        25.35738         0.60366
C         15.63898        27.31183         1.44508
C         14.39420        26.58265         1.24164
C         15.67928        28.68205         1.52198
C         14.42773        29.47011         1.64781
C         15.67460        31.55920         1.24518
C         14.45270        30.91593         1.34462
C         15.74070        33.01161         1.05185
C         14.47690        33.78795         0.92439
C         15.57473        35.68700         2.03384
C         14.43800        35.14857         1.41688
C         15.65613        37.81545         1.56691
C         14.54410        38.20695         0.88724
C         15.86189        40.15892         0.21344
C         14.60941        39.36228        -0.06014
C         15.80480        41.64890         0.07156
C         14.66088        42.09770        -0.85378
C         15.88591        44.29416        -0.97245
C         14.65422        43.60509        -0.92426
C         15.88963        45.68861        -1.17968
C         14.67277        46.41293        -1.29661
C         15.87520        48.57649        -1.37239
C         14.71298        47.85531        -1.49393
C         15.92856        50.00689        -1.51571
C         18.37794        10.53176        -0.67984
C         18.22210        11.90766        -0.92060
C         17.00874        12.52354        -0.43332
C         18.21040        14.81260        -1.74311
C         16.52741        13.74195        -0.90024
C         18.10432        16.20076        -1.40513
C         16.93390        16.78883        -0.93082
C         18.15129        19.06478        -0.93987
C         17.00832        18.22510        -0.54205
C         18.14292        20.41368        -0.69407
C         16.90236        21.10095        -0.39583
C         18.20187        23.17676         0.19027
C         16.95335        22.58642        -0.38046
C         18.23584        24.59764         0.57104
C         16.91064        25.21528         0.85104
C         18.21445        27.21521         1.94263
C         16.90174        26.53128         1.53645
C         18.13863        28.70275         1.67358
C         16.95934        29.37020         1.50448
C         18.18933        31.56065         1.67085
C         16.98841        30.82549         1.09342
C         18.11291        32.99199         2.16592
C         16.96036        33.74792         1.53196
C         18.13425        35.99362         2.01996
C         16.84991        35.17372         1.90019
C         18.18936        37.46513         1.43677
C         17.01540        38.22001         1.23548
C         18.28474        40.26109         0.62782
C         17.02657        39.55351         0.66443
C         18.32089        41.55731         0.07781
C         17.13954        42.25925        -0.28967
C         18.38435        44.32998        -0.75417
C         17.15636        43.58809        -0.74156
C         18.40673        45.71553        -0.90999
C         17.17952        46.42740        -1.42710
C         18.41932        48.57209        -1.17247
C         17.11770        47.85521        -0.89793
C         18.43622        49.98981        -1.66878
C         17.11363        50.71269        -1.55335
C         18.32250        52.86421        -1.68294
C         17.14394        52.13381        -1.71680
C         18.32537        54.27654        -1.97603
C         20.96773         6.34892        -0.75246
C         20.82901         7.72158        -1.12804
C         19.65588         8.43092        -0.80031
C         20.69793        10.56010        -1.48986
C         19.56210         9.82801        -0.99684
C         20.58135        11.94837        -1.66759
C         19.35748        12.63388        -1.46593
C         20.64271        14.79974        -1.45252
C         19.38052        14.07592        -1.62040
C         20.66542        16.23161        -1.39909
C         19.38610        16.94480        -1.58611
C         20.67532        19.13004        -1.22966
C         19.38497        18.43192        -1.44580
C         20.65674        20.50660        -1.12781
C         19.34983        21.26144        -1.06935
C         20.71081        23.20367        -0.04581
C         19.47677        22.45450        -0.12569
C         20.75387        24.50494         0.71749
C         19.42759        25.24456         0.82436
C         20.70123        27.30760         1.32469
C         19.48105        26.61022         1.29745
C         20.71939        28.73245         1.76833
C         19.40404        29.44557         1.82637
C         20.64700        31.65956         2.10351
C         19.37773        30.91795         1.74449
C         20.65953        33.06940         1.47154
C         19.34245        33.76653         1.75156
C         20.98875        36.13813         1.16625
C         19.14141        35.05451         1.38636
C         20.80284        37.55371         1.41059
C         19.46069        38.16173         1.26396
C         20.71050        40.32557         1.10350
C         19.48003        39.56764         1.01537
C         20.80051        41.59581         0.55127
C         19.63679        42.16129        -0.15510
C         20.88201        44.39976        -0.27477
C         19.66258        43.62532        -0.55262
C         20.83020        45.80340        -0.47577
C         19.62112        46.45585        -0.77084
C         20.83782        48.67011        -0.75303
C         19.60304        47.90852        -0.97029
C         20.77259        50.13272        -0.76316
C         19.61303        50.77882        -1.13641
C         20.71259        52.97243        -1.08175
C         19.58006        52.22112        -1.29898
C         20.70567        54.40866        -1.37761
C         19.47179        55.02582        -1.90492
C         20.73427        57.00827        -2.64765
C         19.55402        56.41095        -2.32885
C         20.74016        58.39136        -3.25188
C         23.69530         3.84805        -0.23797
C         22.43129         4.42957        -0.20553
C         23.25055         6.21298        -1.70701
C         22.17136         5.65191        -0.88156
C         23.12135         7.71183        -2.13959
C         21.93595         8.44214        -1.68778
C         23.08906        10.54419        -2.24308
C         21.91312         9.84382        -1.80848
C         23.04173        12.00661        -2.39787
C         21.71552        12.75212        -2.26673
C         23.10833        14.62517        -0.98005
C         21.83515        14.10271        -1.58338
C         23.02360        16.17392        -0.54593
C         21.88606        16.94520        -1.22687
C         23.10194        19.10414        -0.67905
C         21.88344        18.35448        -1.17680
C         23.17756        20.49062        -1.36992
C         21.90258        21.35951        -1.26714
C         23.20746        23.30996        -0.30890
C         21.98718        22.42976        -0.15357
C         23.18292        24.67276         0.02399
C         21.85553        25.40376         0.13644
C         23.15589        27.44355         0.88532
C         21.93845        26.74646         0.84419
C         23.24062        28.78142         1.61805
C         21.94647        29.55957         1.58346
C         23.15770        31.71648         1.68772
C         21.91989        30.91892         1.71867
C         23.15166        33.08935         1.85685
C         21.87006        33.86648         2.04959
C         23.21651        36.03602         2.01179
C         22.00444        35.34259         1.62577
C         23.16145        37.53482         2.28024
C         21.92210        38.25888         1.77881
C         23.21291        40.37620         1.44827
C         21.88619        39.76154         1.87428
C         23.22535        41.69874         0.94382
C         22.03419        42.35415         0.54877
C         23.29087        44.50987         0.27842
C         22.05959        43.73141         0.12742
C         23.28773        45.90611         0.08215
C         22.12604        46.55406        -0.62097
C         23.14661        48.79809         0.18560
C         21.99202        48.03158        -0.39464
C         23.17633        50.23511        -0.26176
C         22.00131        50.87986        -0.51390
C         23.26053        52.99748        -1.00303
C         21.96751        52.39154        -0.48122
C         23.27919        54.29650        -1.57003
C         22.01877        55.07018        -1.68146
C         23.29127        57.00657        -2.60207
C         22.01304        56.21461        -2.66919
C         23.28138        58.39863        -2.90114
C         22.06530        59.11066        -3.14210
C         23.32980        61.18445        -3.35428
C         22.10483        60.48075        -3.35300
C         24.77705         4.46247        -0.89257
C         25.67967         6.37883        -2.18614
C         24.60413         5.66267        -1.60335
C         25.57394         7.72327        -2.55644
C         24.36249         8.44101        -2.39555
C         25.57393        10.60245        -2.46453
C         24.32150         9.86953        -2.41641
C         25.60461        11.96782        -2.16511
C         24.35614        12.75374        -2.20238
C         25.58246        14.75198        -1.47268
C         24.35822        14.12863        -1.66850
C         25.62972        16.16224        -1.14653
C         24.45175        16.88974        -0.52121
C         25.55308        19.05597        -1.16569
C         24.39720        18.35630        -0.92697
C         25.60854        20.51734        -1.11378
C         24.43761        21.24224        -0.99879
C         25.62771        23.37850        -0.52333
C         24.42181        22.64640        -0.63316
C         25.60754        24.73747        -0.16881
C         24.39353        25.42072         0.08663
C         25.61452        27.56207         0.53604
C         24.38631        26.82694         0.47998
C         25.63595        28.95719         0.84683
C         24.42998        29.63646         1.24649
C         25.60405        31.85734         1.04938
C         24.40091        31.01002         1.41913
C         25.68289        33.19808         1.73917
C         24.41615        33.83056         2.24917
C         25.66809        36.08853         2.35354
C         24.38855        35.34031         2.06628
C         25.60658        37.51049         1.82839
C         24.43955        38.23149         1.88277
C         25.68737        40.33349         1.48645
C         24.41528        39.65218         1.61627
C         25.64856        41.83694         1.52169
C         24.54646        42.34634         0.60030
C         25.70284        44.58229         0.75457
C         24.49845        43.85559         0.61762
C         25.70715        45.99178         0.55195
C         24.48039        46.66611         0.24824
C         25.67682        48.81292         0.09901
C         24.46540        48.07901         0.09737
C         25.71245        50.22168        -0.11230
C         24.43694        51.02727         0.01863
C         25.70111        52.92239        -1.11464
C         24.45978        52.32451        -0.75991
C         25.71886        54.25040        -1.64284
C         24.49262        54.93813        -1.87454
C         25.72922        57.04315        -2.42591
C         24.49270        56.33550        -2.32117
C         25.73016        58.39567        -2.72244
C         24.52066        59.11144        -2.92562
C         24.52021        60.51300        -3.16179
C         26.78677         8.44781        -3.09425
C         28.01197        10.57928        -2.63299
C         26.81741         9.90454        -2.68974
C         28.09156        11.96501        -2.24497
C         26.84166        12.65825        -1.97734
C         28.06866        14.70339        -1.36579
C         26.81945        14.03083        -1.68883
C         28.09804        16.16241        -1.34388
C         26.82787        16.84818        -1.26181
C         28.13987        19.04506        -1.13731
C         26.82413        18.32203        -1.35433
C         28.15836        20.47257        -0.83231
C         26.91711        21.21322        -1.08614
C         28.15285        23.26364        -0.20083
C         26.92207        22.71091        -0.79959
C         28.05417        24.64295         0.42311
C         26.92123        25.46165        -0.23699
C         28.07194        27.55603         0.29806
C         26.87588        26.88885         0.26210
C         28.09064        29.02408         0.39562
C         26.85418        29.71606         0.78306
C         28.13789        31.77335         1.30189
C         26.89565        31.08595         1.07232
C         28.15293        33.18211         1.66660
C         26.88880        33.88395         1.82754
C         28.12112        35.99614         1.77003
C         26.92626        35.32551         1.98231
C         28.13584        37.42662         1.38702
C         26.83483        38.17542         1.35879
C         28.13749        40.31898         0.90904
C         26.86188        39.64587         1.36455
C         28.16991        41.79700         1.22547
C         26.96918        42.50185         1.24452
C         28.15835        44.64360         1.05985
C         26.95187        43.91909         1.05041
C         28.16605        46.03133         0.82490
C         26.92933        46.72052         0.58873
C         28.13766        48.83827         0.28934
C         26.91434        48.11604         0.30215
C         28.19227        50.16676        -0.25444
C         26.94356        50.86196        -0.40806
C         28.14655        52.80477        -1.34457
C         26.92902        52.21025        -0.92120
C         28.14674        54.16540        -1.79060
C         26.98000        54.88803        -1.89716
C         27.06153        56.36241        -2.21169
C         29.31156        12.63166        -2.22895
C         30.62145        14.80910        -1.77338
C         29.43963        13.95570        -1.63890
C         30.58700        16.13671        -1.37880
C         29.32109        16.80645        -1.18596
C         30.61665        18.94805        -0.51253
C         29.31736        18.22185        -0.76667
C         30.60025        20.41612        -0.49076
C         29.37225        21.12716        -0.51100
C         30.55504        23.16491         0.48023
C         29.31465        22.54774        -0.15384
C         30.52956        24.67279         0.34381
C         29.36531        25.37280         0.29987
C         30.53497        27.51422         0.76879
C         29.38892        26.86171         0.00334
C         30.65459        28.98306         0.77609
C         29.41335        29.77018         0.54623
C         30.62147        31.68559         1.57999
C         29.35305        31.10043         1.14919
C         30.64240        33.15378         1.94731
C         29.35826        33.86951         1.85996
C         30.59806        36.02575         1.79950
C         29.38354        35.30392         1.81832
C         30.60105        37.42772         1.57352
C         29.41303        38.17159         1.41629
C         30.59360        40.33642         1.34601
C         29.40845        39.59190         1.28886
C         30.61706        41.76876         1.30950
C         29.41398        42.48317         1.28142
C         30.68916        44.66735         1.05854
C         29.42428        43.97158         1.53258
C         30.67967        46.07385         0.91517
C         29.40989        46.76520         0.88512
C         31.07303        48.96725        -0.18585
C         29.29253        48.16607         0.77478
C         30.64897        50.04239        -1.00358
C         29.41366        50.74589        -0.79902
C         29.33799        52.04876        -1.33343
C         31.81619        16.91641        -1.24362
C         33.18540        18.91225        -0.58278
C         31.86323        18.20589        -0.81281
C         33.14377        20.42708        -0.88409
C         31.91660        21.07823        -0.14504
C         32.76450        23.43520        -0.62938
C         31.79239        22.59185        -0.18296
C         32.95405        24.78363        -0.10563
C         31.80327        25.37240         0.35680
C         33.11860        27.37268         1.12344
C         31.79548        26.71227         0.93991
C         33.10394        28.88335         1.26552
C         31.83476        29.60566         1.05508
C         33.14172        31.76037         1.43927
C         31.87258        31.11402         0.94487
C         33.12794        33.17147         1.69482
C         31.92226        33.87185         1.82272
C         33.16602        36.06596         1.83468
C         31.89300        35.33081         2.19611
C         33.15783        37.43184         1.68515
C         31.88444        38.12789         1.40781
C         33.10434        40.36631         1.80099
C         31.88074        39.62387         1.32619
C         33.10295        41.79022         1.29576
C         31.89373        42.48210         1.21982
C         33.14344        44.56140         0.67992
C         31.88203        43.90494         0.98332
C         33.17237        45.93591         0.48138
C         32.00566        46.83905         0.74276
C         31.91233        47.89183        -0.35834
C         34.45341        21.06319        -0.40919
C         35.74162        23.29954        -0.30257
C         34.71320        22.36338        -0.69977
C         35.56171        24.67059        -0.13192
C         34.28191        25.39909         0.08685
C         35.62870        27.37709         1.01288
C         34.33552        26.66218         0.65313
C         35.57197        28.89036         0.66214
C         34.35647        29.65113         1.12558
C         35.62102        31.73049         1.83228
C         34.35519        31.02596         1.35824
C         35.61704        33.20733         1.52875
C         34.40234        33.90258         1.67709
C         35.63224        36.02028         1.57718
C         34.41269        35.32572         1.73246
C         35.68950        37.50159         1.85834
C         34.37923        38.21647         1.61662
C         35.66451        40.35162         1.71718
C         34.37157        39.58173         1.56371
C         35.57560        41.74805         1.17479
C         34.37137        42.44077         1.04048
C         34.34630        43.80684         0.64936
C         36.77423        25.45440        -0.07205
C         38.01736        27.55265         0.14420
C         36.83186        26.77457         0.32084
C         38.08712        28.90954         0.46263
C         36.88193        29.54787         1.05297
C         38.10537        31.77830         1.05144
C         36.91187        30.99793         1.44929
C         38.06258        33.17578         1.03699
C         36.82961        33.89865         1.30508
C         38.03497        36.05491         0.94866
C         36.82321        35.32092         1.29113
C         38.00983        37.44553         0.84510
C         36.86014        38.21525         1.21516
C         36.83521        39.58225         1.15938
C         39.25886        29.69237         0.33932
C         40.46110        31.83977         0.31942
C         39.27509        31.07372         0.59839
C         40.45031        33.20404         0.37283
C         39.24644        33.92566         0.68888
C         39.21666        35.31784         0.64938
O         27.40223        37.60675         0.09243
O         19.97887        35.56899         0.39205
O         12.09176        22.70415        -0.69145
O         28.83094        14.05753        -0.31236
O         21.39260        55.29128        -0.37818
O         37.13228        29.91753         2.43923
O         15.46817        36.94201         2.64677
O         13.71159        29.20079         2.91192
O         23.75237        12.55064        -3.56052
O         19.89712        42.55349        -1.54610
O         20.10676        29.00922         3.08050
O         33.74029        22.99134        -1.52814
O         16.64782        18.48117         0.86143
O         19.31707        17.82854        -2.78564
O         27.62669        18.77929        -2.49710
O         18.80262        22.27521         1.19304
O         27.06705        22.22096        -2.16554
O         30.69589        32.07427         2.97020
O         13.67860        33.48953        -0.25515
O         22.52392        16.20573         0.77541
O         30.84133        26.87607         2.04196
O         29.77990        18.40120         0.60206
O         32.02951        38.84216         0.10389
O         22.03956        55.47300        -4.00032
O         16.79120        33.44908         0.09674
O         13.41398        36.49312        -0.38262
O         33.21005        27.98753         2.45637
O         22.85274         6.60406        -3.04953
O         16.66457        25.27945         2.29788
O         30.37956        48.97601         1.07668
O         17.05650        14.15711        -2.14894
O         10.34593        31.30093        -0.54209
O         12.22387        26.67117         2.56679
O         16.44563        23.16574        -1.63228
O         28.78280        29.63919        -0.76277
O         32.99515        40.46396         3.25749
H         33.89225        40.71613         3.58824
O         17.00656        47.74770         0.55155
H         16.92960        48.65245         0.91982
O         23.10973        37.64543         3.76044
H         22.32857        37.12860         4.05954
O         19.07893        21.83480        -2.37538
H         19.21388        21.13999        -3.05280
O         24.34173        51.39091         1.44635
H         23.53350        51.96482         1.52766
O         27.91295        56.58795        -3.34930
H         27.51220        56.14328        -4.12383
O         10.72953        27.30911        -0.78037
H          9.90994        27.73062        -1.13024
O         35.91249        37.62563         3.31805
H         36.70149        37.08556         3.53975
O         26.77337         8.36307        -4.53558
H         25.93792         8.76340        -4.85419
O         24.84596        16.92220         0.87551
H         24.02088        16.62711         1.37075
O         27.77228        24.44619         1.83375
H         27.77190        25.32324         2.27347
O         22.46367        46.42926        -2.06307
H         22.44021        45.47385        -2.28683
O         12.03487        33.71797         3.00553
H         11.22843        34.12871         3.38320
O         20.85503        32.89236         0.05728
H         20.65140        33.75203        -0.37581
O         17.34259        46.52413        -2.87247
H         17.31675        45.61659        -3.24249
O         32.14739        20.73728         1.25300
H         31.50967        21.26196         1.79850
O         32.98721        20.55543        -2.30469
H         33.18282        21.49491        -2.53475
O         31.85499        35.34099         3.67292
H         32.55792        34.73628         3.99442
O         20.63117        31.75856         3.55226
H         20.56093        30.83004         3.88170
O         24.46865        33.67878         3.72982
H         25.09551        34.37052         4.06334
O         34.21683        18.32961        -1.37687
H         34.14557        18.74139        -2.26609
O         21.42608        25.68801        -1.22764
H         22.12748        26.21067        -1.66869
O         23.10925        13.88033         0.27521
H         22.79224        14.58001         0.93937
O         14.92569        41.60991        -2.19264
H         14.86935        40.62259        -2.17652
O         24.89936        41.94400        -0.75106
H         24.16552        42.19741        -1.34886
O         18.51540        36.12798         3.41423
H         17.72549        36.43064         3.91001
O          8.47230        40.15983        -0.07183
H          8.61613        39.85254        -0.99016
O         19.67820        59.18885        -2.71962
H         19.83836        59.31480        -1.76209
O         22.92498        19.20069         0.74597
H         22.76745        18.27827         1.07185
O          7.82752        31.65159        -0.96812
H          8.66780        31.87604        -1.43530
O         22.90067        48.89033         1.64293
H         23.46254        49.63510         1.97082
O         35.86360        40.45566         3.18375
H         35.95700        39.52118         3.50618
O         35.51378        28.92805        -0.80124
H         35.54783        29.86334        -1.09228
O         35.52052        31.68669         3.28515
H         35.89310        30.81612         3.56301
O         22.13003        21.73144         1.10979
H         22.08009        22.41191         1.82237
O         22.11486        56.46802        -5.04693
H         23.07581        56.48001        -5.27694
O         14.16892        20.49857         1.80834
H         13.82994        19.83892         2.44842
O         23.43753        28.42939         3.02967
H         22.59795        28.04336         3.36121
O         21.27071        13.07031        -3.62061
H         22.08672        13.18370        -4.16363
O         17.92816        32.94512         3.59403
H         18.78821        32.64254         3.97418
O         18.66752        49.90059        -3.12265
H         19.36342        49.22575        -3.27321
O         21.67875        34.02493         3.48142
H         22.54960        33.86141         3.91891
O         17.21953        30.79014        -0.35477
H         17.20659        31.73076        -0.65951
O         25.26370        42.24050         2.86614
H         26.01049        42.05128         3.47170
O         29.42182        44.10855         3.00206
H         29.52948        45.06201         3.20697
O         29.68749        27.01358        -1.40616
H         28.94019        26.58900        -1.89376
O         31.74599        31.45556        -0.47427
H         32.45219        30.99021        -0.96890
O         13.83420        20.74927        -1.79487
H         14.26227        21.33580        -2.45269
O         21.70374        40.12972         3.28016
H         22.34582        39.58872         3.79632
O         25.39345        32.21854        -0.37685
H         25.58114        31.41838        -0.91325
O         15.82689        25.59922        -1.23534
H         16.23439        24.99147        -1.89895
O         28.09328        40.24380        -0.55614
H         27.94641        39.29115        -0.77732
O         30.52183        22.82507         1.89613
H         29.68312        23.18788         2.26239
O          7.94881        28.75449        -0.81353
H          7.81801        29.69489        -1.10236
O         18.35674        27.02221         3.37019
H         17.93801        26.15656         3.58066
O         15.45738        42.17478         1.39897
H         16.17269        41.92155         2.02012
O         27.30310        25.53476        -1.65139
H         26.52159        25.82999        -2.16439
O         32.31559        47.47341         2.02131
H         31.68825        48.22944         2.11751
O         23.29605        20.16054        -2.79158
H         24.24631        20.07427        -3.02016
O         25.72095        36.21451         3.82959
H         24.92922        36.74827         4.09020
O         21.13281        24.14660         2.08727
H         20.36467        23.67167         2.47770
O         35.83301        27.23175         2.43069
H         34.99494        27.51118         2.87488
O         14.70542        38.86522        -1.44023
H         14.24787        37.99103        -1.47062
O         21.77890        22.12414        -2.48028
H         22.14726        21.56224        -3.20319
O         21.93945        52.77130         0.94881
H         21.80228        53.75009         0.96028
H          4.91631        31.26964         1.76518
H          4.90346        33.70754         1.48183
H          7.23818        26.84105         1.32219
H          6.11960        29.09225         1.60835
H          6.12336        35.86352         1.14343
H          7.40322        38.02870         0.84749
H          9.65617        22.62829         1.57166
H          8.53211        24.66403         1.44536
H          9.33321        40.03191         1.78502
H          9.96644        42.19529        -0.16447
H         12.34760        18.39836         0.30715
H         11.61053        20.57195         1.87186
H         11.25124        44.20276        -0.85463
H         12.50727        46.27919        -1.23795
H         14.86168        14.30775         0.37210
H         13.61988        16.23462        -0.00249
H         13.77145        48.37036        -1.74054
H         14.97666        50.55571        -1.60378
H         17.53195         9.96922        -0.25767
H         16.48663        12.02265         0.39575
H         16.19234        52.66292        -1.88248
H         17.39198        54.73751        -2.33261
H         20.13786         5.87923        -0.20248
H         18.80010         7.89052        -0.36933
H         18.61860        56.97832        -2.45399
H         20.52215        58.27066        -4.35141
H         23.86693         2.90799         0.30465
H         21.62584         3.96055         0.37775
H         23.32871        62.26981        -3.52588
H         21.16374        61.02168        -3.52617
H         25.77672         4.00836        -0.83555
H         26.66864         5.89711        -2.22872
H         26.68828        58.93120        -2.79131
H         25.47722        61.05365        -3.17787
H         27.72271         7.93669        -2.75603
H         28.94930        10.04250        -2.84323
H         29.10627        54.64752        -2.02842
H         27.57295        56.86719        -1.34568
H         30.20332        12.14482        -2.65179
H         31.56707        14.35879        -2.11101
H         31.33407        50.43892        -1.76799
H         30.25023        52.50312        -1.74834
H         32.76739        16.40694        -1.46284
H         33.46052        18.77255         0.49625
H         34.13935        46.42349         0.28370
H         32.41296        47.71918        -1.32029
H         35.11970        20.48587         0.24665
H         36.76938        22.91570        -0.19605
H         36.51706        42.28080         0.97121
H         35.29295        44.32272         0.43096
H         37.69421        24.97741        -0.44684
H         38.90417        27.05801        -0.28297
H         38.90806        37.97584         0.49378
H         37.70786        40.13633         0.77946
H         40.17791        29.21666        -0.03579
H         41.37701        31.30198         0.03441
H         41.35992        33.77712         0.14145
H         40.12870        35.86923         0.37552
