         345
 CSIRO Nanostructure Databank - Neutral Graphene Oxide Data Set
C          1.22489         3.68715         0.08230
C          0.03474         4.36490         0.16940
C          1.15351         6.39359         0.93341
C         -0.00248         5.72405         0.59685
C          1.16237         7.79633         1.51853
C         -0.10813         8.57711         1.32670
C          1.07813        10.64810         0.77752
C         -0.11712         9.91400         1.05739
C          1.01659        12.09518         0.43227
C         -0.06980        12.99269         0.89044
C          1.12596        15.04163         0.15711
C         -0.02283        14.34024         0.70316
C          1.12778        16.37874        -0.21614
C         -0.00791        17.25749         0.05449
C          1.01811        19.10329        -1.24221
C         -0.04809        18.54867        -0.33612
C          1.13643        20.62225        -1.30470
C         -0.04656        21.29918        -1.46431
C          1.10072        23.39899        -1.78571
C         -0.06512        22.70945        -1.68550
C          1.09777        25.64058        -1.19831
C         -0.07414        26.26330        -0.74870
C          1.28031        27.87190         0.45680
C          0.02043        27.31815         0.15456
C          1.31362        29.07652         1.29173
C          3.68422         3.69564         0.22425
C          2.45582         4.33261         0.42415
C          3.61941         6.38588         1.12201
C          2.41991         5.70722         0.87267
C          3.61312         7.82940         1.04515
C          2.39700         8.54749         1.07122
C          3.52993        10.64409         0.44531
C          2.32254         9.95464         0.77089
C          3.54575        11.99577         0.04718
C          2.28434        12.78289         0.02800
C          3.48816        14.80667        -0.73555
C          2.43622        14.29078         0.22386
C          3.50363        16.22419        -1.28836
C          2.32190        17.02611        -0.77366
C          3.54446        19.10730        -1.46486
C          2.31422        18.36590        -1.03178
C          3.52476        20.53492        -0.92606
C          2.41050        21.32220        -1.21412
C          3.65942        23.72929        -1.36797
C          2.47762        22.79015        -1.77928
C          3.62667        25.24144        -1.14291
C          2.37927        26.01002        -0.75860
C          3.68033        28.04646        -0.35420
C          2.44265        27.25523        -0.08358
C          3.71157        29.01519         1.95132
C          2.36729        29.60401         1.96540
C          6.06559         3.46674         0.36413
C          4.93065         4.24752         0.62666
C          6.14610         6.44695         1.18239
C          4.89558         5.59783         1.39324
C          6.09421         7.84680         0.83211
C          4.85718         8.51568         0.82668
C          6.08730        10.64457         0.13872
C          4.82064         9.96681         0.63200
C          5.98814        11.93364        -0.60790
C          4.67207        12.61407        -0.51552
C          6.28008        14.98903        -1.30267
C          4.43097        13.89753        -1.12544
C          6.10669        16.30912        -1.00518
C          4.83431        17.01194        -1.15186
C          6.11366        19.20012        -1.32525
C          4.83375        18.37565        -1.17668
C          5.98115        20.54199        -0.62782
C          4.73564        21.02840        -0.29780
C          6.16907        23.69829        -0.95073
C          4.94148        23.22964        -1.63299
C          6.19132        25.11378        -0.59647
C          4.96555        25.93682        -0.83729
C          6.06095        27.86698         0.37658
C          4.96047        27.30192        -0.22113
C          6.07495        29.11655         1.14837
C          4.82026        29.72801         1.58258
C          8.62927         3.43905         0.32103
C          7.38664         3.75484         0.83346
C          8.63482         6.39810         0.99601
C          7.38296         5.85825         1.40085
C          8.64806         7.90394         0.95763
C          7.32714         8.54963         0.56769
C          8.55489        10.61310        -0.10093
C          7.33827         9.86370         0.09206
C          8.58944        11.97589        -0.41424
C          7.32413        12.66500        -0.80100
C          8.61313        14.87656        -0.75509
C          7.29455        14.16459        -0.55191
C          8.61359        16.32596        -0.42382
C          7.29024        17.07041        -0.52731
C          8.54717        19.15864        -0.57721
C          7.34917        18.49962        -0.78254
C          8.53090        20.64510        -0.41395
C          7.20973        21.36161        -0.41885
C          8.46639        23.44979        -0.00226
C          7.22216        22.85826        -0.59016
C          8.49070        24.91866         0.32695
C          7.28148        25.69466         0.00233
C          8.60538        27.80322         0.64543
C          7.34464        27.15435         0.21269
C          8.55753        29.18842         1.18095
C          7.26841        29.75753         1.43948
C         11.07632         3.57440         0.48171
C          9.83175         4.20408         0.62455
C         11.08032         6.35918         0.63190
C          9.80938         5.64821         0.80992
C         11.08005         7.73967         0.36635
C          9.76983         8.41801         0.07624
C         11.10577        10.65091         0.17241
C          9.80961         9.91899         0.24252
C         11.07449        12.07356        -0.18629
C          9.84687        12.69032        -0.43511
C         11.13770        14.90982        -0.47333
C          9.90320        14.13591        -0.72250
C         11.12349        16.31620        -0.51861
C          9.87316        17.06090        -0.55087
C         11.07161        19.18682        -0.27851
C          9.80096        18.44644        -0.49026
C         11.04553        20.67262        -0.24122
C          9.80611        21.39671        -0.74831
C         10.97145        23.49972        -0.07198
C          9.78318        22.81837        -0.24807
C         10.96933        24.90769         0.30993
C          9.79926        25.59602         0.46609
C         11.05747        27.75623         0.86823
C          9.78849        26.97511         1.09011
C         11.02228        29.19871         1.08690
C          9.75867        29.83793         1.37531
C         13.52024         3.38413         0.48933
C         12.32933         4.22195         0.64338
C         13.53586         6.44724         0.58366
C         12.33474         5.65376         0.71602
C         13.51492         7.76889         0.14641
C         12.28258         8.46759         0.11908
C         13.57332        10.56994        -0.11103
C         12.33757         9.87646        -0.03416
C         13.54141        12.02734         0.13513
C         12.31039        12.78582        -0.15952
C         13.61287        14.90249        -0.19584
C         12.35233        14.19003        -0.26753
C         13.58412        16.34960        -0.33923
C         12.37418        17.02279        -0.46494
C         13.62102        19.22729        -0.36293
C         12.35097        18.50822        -0.74466
C         13.57934        20.67336         0.08386
C         12.31596        21.42956        -0.27001
C         13.51642        23.55044        -0.07437
C         12.26668        22.80014        -0.16552
C         13.51596        24.92248         0.15624
C         12.26736        25.58159         0.71162
C         13.43995        27.87639         0.37596
C         12.21190        27.09213         0.58082
C         13.46454        29.28951         0.80343
C         12.21509        29.91257         1.10892
C         16.10300         3.18207         0.79242
C         14.76085         3.71627         0.96124
C         16.02134         6.36014         0.35453
C         14.83620         5.90751         0.87183
C         16.03661         7.67064        -0.34188
C         14.74436         8.43781        -0.33261
C         16.07472        10.58930        -0.31329
C         14.79566         9.90731        -0.29500
C         16.11127        11.97132        -0.10161
C         14.87094        12.75332         0.16559
C         16.07796        14.96792        -0.02168
C         14.81697        14.21528        -0.05988
C         16.03626        16.40935        -0.35535
C         14.84104        17.08634        -0.40488
C         16.08661        19.28359        -0.33663
C         14.82248        18.55471        -0.40607
C         16.07974        20.71566        -0.30870
C         14.82666        21.44248        -0.26240
C         16.00441        23.60817        -0.40532
C         14.76290        22.82478        -0.27414
C         15.97097        25.01870         0.00734
C         14.76515        25.64793         0.22160
C         15.97066        27.86257         0.66657
C         14.76577        27.13032         0.30369
C         15.94028        29.26473         0.77733
C         14.68285        29.95619         0.85020
C         18.50599         3.40355         0.81962
C         17.20224         4.01049         0.67787
C         18.47841         6.16917        -0.02912
C         17.16475         5.41572         0.05777
C         18.49713         7.50554        -0.53930
C         17.32663         8.41179        -0.49399
C         18.53536        10.63924        -0.78631
C         17.32416         9.81183        -0.54784
C         18.60194        12.00712        -0.41288
C         17.41782        12.65956         0.25486
C         18.62321        14.90148        -0.31277
C         17.37578        14.20377         0.07546
C         18.59094        16.34474        -0.66727
C         17.30240        17.12306        -0.62704
C         18.54936        19.29493        -0.35504
C         17.32421        18.59864        -0.44668
C         18.55283        20.71310        -0.17302
C         17.31090        21.40649        -0.25853
C         18.56435        23.59531         0.02581
C         17.33393        22.86933        -0.35385
C         18.53700        24.99395         0.17898
C         17.23435        25.67332         0.40409
C         18.54397        27.84670         1.04655
C         17.21636        27.10213         0.87552
C         18.42112        29.34747         0.82933
C         17.17648        29.98455         0.86422
C         19.66195         4.06762         0.55750
C         20.90300         5.97166        -0.38928
C         19.68049         5.42830         0.05913
C         20.89183         7.16614        -1.09760
C         19.69054         7.87801        -1.19642
C         20.85274        10.87258        -1.63752
C         19.66744        10.14968        -1.48027
C         20.93053        12.16766        -1.14837
C         19.79395        12.75736        -0.56361
C         21.06472        14.95099        -0.33462
C         19.81030        14.21163        -0.36156
C         21.10884        16.30192        -0.38186
C         19.89722        17.09354        -0.67738
C         21.04833        19.34561        -0.07519
C         19.85584        18.60936        -0.51393
C         20.99501        20.68918         0.15378
C         19.78084        21.43447         0.02308
C         20.97039        23.63769         0.31331
C         19.78670        22.87998         0.12796
C         20.94701        25.02924         0.32602
C         19.73391        25.73753         0.27051
C         20.90873        28.03240         0.25941
C         19.62561        27.25113         0.11356
C         20.85967        29.37333         0.51363
C         19.62158        30.05808         0.70261
O          8.27297        23.91115         1.38542
O          7.93295        21.03650         0.85591
O          6.64052        12.03637        -1.91421
O         15.23177         7.77303        -1.58883
O          9.24686        14.54643        -2.01352
O          3.59623        29.17515        -0.81491
O          8.29380        27.76025        -0.78361
O          7.84696        16.67159         0.78817
O         17.84430        16.60461        -1.91315
O         17.09640        26.02692         1.87474
O          5.67705        10.76490         1.54410
O          4.41008        25.91973        -2.19807
O         10.44113        10.37276         1.47388
O          1.36012        12.36491        -1.00818
O         11.00854        19.87787         1.01469
O         19.63322         8.91567        -2.13395
O         16.80724        14.81104         1.29782
O         14.17456        12.37473         1.41760
O          0.99505        24.71720        -2.24063
O         16.77091        23.36914        -1.63547
O         14.83526         4.85622         1.78913
O         20.04478        17.95920        -1.84170
O         14.09830        27.66538        -0.91615
O          5.35272        14.32718        -2.10601
O          7.40008         4.58120         1.98319
O          6.92574        14.22233         0.85251
H          7.11880        15.13607         1.19137
O          2.92506        14.45258         1.59212
H          3.05444        15.40909         1.76121
O          9.40771         8.11213        -1.29702
H         10.20040         8.22135        -1.86247
O          1.29454         7.59899         2.97396
H          1.45367         8.47882         3.37635
O         16.90791         5.06726        -1.36073
H         16.70187         5.89921        -1.84284
O          9.90622        21.41135        -2.19651
H         10.74926        21.84300        -2.44922
O          3.29925        16.15405        -2.73971
H          3.95072        15.49663        -3.07880
O         19.13305        27.46919        -1.24216
H         19.80872        27.14219        -1.87208
O          2.67266        22.49265        -3.22833
H          2.53548        23.33981        -3.70793
O         18.98074        27.68343         2.40896
H         18.51593        26.88941         2.76525
O          9.64579        26.75826         2.52039
H         10.44540        26.26223         2.81271
O         12.25797        18.64216        -2.20978
H         13.00942        18.15160        -2.60609
O         13.57389        20.60416         1.55908
H         12.68982        20.23525         1.81011
O          4.58768        22.02411         0.62173
H          5.45605        22.21532         1.03474
O          3.48855        19.20474        -2.94148
H          3.45567        18.26846        -3.25867
O          6.32749        19.37202        -2.75391
H          5.45668        19.62397        -3.14325
O          0.62460        18.73371        -2.61150
H          1.36594        19.01671        -3.19419
O         17.59453        12.41724         1.67726
H         17.00628        13.05583         2.14496
O          4.84168         5.24044         2.80616
H          5.67858         4.75720         2.99990
O         12.35444        25.37228         2.17569
H         12.41893        24.40486         2.33276
O          3.79847        27.67984         2.24046
H          2.91681        27.34609         2.50043
O          5.14870        22.21483        -2.48811
H          4.30346        22.01905        -2.97566
O          8.91887         8.33806         2.31591
H          8.10177         8.23970         2.84724
H          1.24890         2.63910        -0.24958
H         -0.90771         3.86342        -0.09160
H         -0.97847         6.22467         0.65993
H         -1.05936         8.07307         1.55035
H         -1.08051        10.44359         1.01097
H         -0.96750        12.54639         1.34370
H         -0.91181        14.92812         0.97794
H         -0.83468        16.86199         0.66287
H         -0.90999        19.17494        -0.06085
H         -0.99961        20.75408        -1.45681
H         -1.01931        23.23147        -1.83344
H         -1.04873        25.91797        -1.11652
H         -0.89006        27.78517         0.55596
H          0.35075        29.60709         1.36974
H          3.68731         2.69736        -0.24151
H          2.23840        30.58236         2.45466
H          5.92399         2.57394        -0.26739
H          4.71916        30.81770         1.48178
H          8.72011         2.63203        -0.42248
H          7.22995        30.72908         1.95587
H         11.08478         2.49186         0.28140
H          9.76947        30.88761         1.70615
H         13.39063         2.44138        -0.06327
H         12.20415        30.98385         1.35974
H         16.27416         2.09963         0.92018
H         14.69833        31.03533         1.06435
H         18.54595         2.36435         1.17981
H         17.14100        31.08497         0.84164
H         20.62855         3.55852         0.68585
H         21.82788         5.38623        -0.29086
H         21.78962         7.53694        -1.60822
H         21.69471        10.41731        -2.17389
H         21.85106        12.74681        -1.29262
H         21.99878        14.39338        -0.17952
H         22.07645        16.81955        -0.32531
H         22.01220        18.82164        -0.02481
H         21.92263        21.21224         0.42278
H         21.94185        23.13382         0.40245
H         21.89907        25.57123         0.41148
H         21.87408        27.55583         0.03327
H         21.79014        29.96059         0.51927
H         19.60799        31.15808         0.69197
