         349
 CSIRO Nanostructure Databank - Neutral Graphene Oxide Data Set
C          1.12871         3.74539         1.40450
C         -0.06972         4.28926         0.97274
C          1.07722         6.27791         0.08283
C         -0.16469         5.57532         0.43355
C          1.13215         7.56512        -0.73152
C         -0.11994         8.31168        -0.95190
C          1.09933        10.44203        -1.08535
C         -0.12594         9.66531        -0.98398
C          1.13055        11.80362        -0.88991
C         -0.02517        12.51780        -0.38002
C          1.18792        14.66848        -0.33319
C         -0.01951        13.84842        -0.14536
C          1.12111        16.16053        -0.25301
C         -0.18261        16.88507        -0.17991
C          1.06647        18.92191         0.39487
C         -0.19541        18.20775         0.05207
C          1.02966        20.41526         0.68964
C          0.02621        21.18381        -0.14025
C          1.26188        23.24176         0.30333
C          0.13393        22.52483        -0.26230
C          1.32563        24.76689         0.37700
C          0.28889        25.65477        -0.29059
C          1.49891        28.01195        -0.43303
C          0.34305        26.99278        -0.46466
C          1.32988        29.19667         0.48919
C          3.64071         3.88823         1.51045
C          2.32662         4.60889         1.67688
C          3.56686         6.62556         0.54230
C          2.29134         5.93811         0.89830
C          3.58443         7.81419        -0.35778
C          2.39752         8.35018        -0.79778
C          3.60907        10.42045        -1.67167
C          2.28705         9.64583        -1.59945
C          3.55473        11.92544        -1.78202
C          2.31132        12.61355        -1.30536
C          3.54437        14.77731        -1.11572
C          2.37815        14.04934        -0.94507
C          3.58063        16.31046        -1.17542
C          2.22283        17.02558        -0.86847
C          3.62733        19.00536         0.07985
C          2.35787        18.24478         0.05632
C          3.58684        20.39547         0.45969
C          2.39392        21.08585         0.61041
C          3.59775        23.24841         1.29802
C          2.37612        22.53179         0.72758
C          3.77573        24.58144         0.62509
C          2.73344        25.11456        -0.03604
C          3.75758        27.71786         0.73160
C          2.80406        27.33680        -0.15879
C          3.70286        29.11217         1.16841
C          2.38224        29.73963         1.14343
C          6.08104         3.83363         1.32546
C          4.82588         4.53834         1.24792
C          6.02411         6.58797         0.54865
C          4.84620         5.93887         0.81388
C          6.04541         7.91138        -0.06404
C          4.85790         8.47780        -0.52653
C          6.09541        10.63504        -1.02127
C          4.88508         9.79435        -1.20005
C          6.09591        11.98841        -1.38354
C          4.87081        12.70590        -1.92151
C          6.00061        14.86664        -1.32308
C          4.79496        14.12910        -1.37604
C          6.05443        16.22088        -0.92152
C          4.78672        16.82913        -0.33182
C          6.05377        19.08909        -0.24247
C          4.81470        18.34599        -0.18762
C          6.12024        20.42425         0.15886
C          4.89681        21.05060         0.71279
C          6.19092        23.25938         0.94574
C          4.92529        22.48600         1.13835
C          6.21620        24.65445         1.11719
C          4.93066        25.38100         1.10286
C          6.16772        27.60323         1.66739
C          4.87954        26.87275         1.24983
C          6.16398        29.07236         1.28511
C          4.89327        29.77093         1.36766
C          8.54021         3.81458         1.36179
C          7.30064         4.48112         1.18961
C          8.50744         6.49274         0.27982
C          7.31403         5.98728         1.04839
C          8.52462         7.93082        -0.05163
C          7.31144         8.59839        -0.26643
C          8.53645        10.67754        -0.89071
C          7.31469         9.98764        -0.69396
C          8.54929        12.05186        -1.23828
C          7.30906        12.70621        -1.42548
C          8.54038        14.93467        -1.74405
C          7.24892        14.15862        -1.71884
C          8.47249        16.37351        -1.41167
C          7.26570        16.97341        -1.04900
C          8.55504        19.23983        -0.83660
C          7.22102        18.45096        -0.87359
C          8.57269        20.54763        -0.15615
C          7.36501        21.16646         0.21049
C          8.61821        23.27557         0.63914
C          7.38856        22.55309         0.63449
C          8.62412        24.66445         0.94401
C          7.43174        25.39267         1.14282
C          8.60369        27.57225         1.20857
C          7.43186        26.85201         1.27271
C          8.62841        29.03585         1.09517
C          7.34724        29.72478         1.06902
C         11.00719         3.87389         1.49447
C          9.78345         4.45685         1.16570
C         11.04959         6.55777         0.45786
C          9.80343         5.76725         0.46916
C         11.00116         7.93037         0.08605
C          9.78779         8.56232        -0.24353
C         11.11466        10.65377        -1.00424
C          9.78962         9.90554        -0.85223
C         11.05509        12.12273        -1.20540
C          9.81224        12.78730        -1.35979
C         11.03783        14.89779        -1.61710
C          9.81775        14.19402        -1.55689
C         11.02711        16.37489        -1.79565
C          9.72451        17.14420        -1.55389
C         11.04039        19.02115        -0.38027
C          9.79538        18.51237        -1.04068
C         11.06469        20.52049        -0.20659
C          9.83882        21.21007         0.02645
C         11.12055        23.26177         0.46490
C          9.86315        22.58569         0.38831
C         11.14525        24.70009         0.61596
C          9.90384        25.36900         1.05186
C         11.06378        27.63143         0.70340
C          9.89407        26.85823         1.22584
C         11.14621        29.04923         1.21514
C          9.81191        29.73096         0.99618
C         13.45308         3.93318         1.64018
C         12.24658         4.56212         1.30859
C         13.50495         6.65479         0.76981
C         12.25009         5.93719         0.84598
C         13.52469         8.04492         0.41674
C         12.21601         8.78666         0.36307
C         13.50269        10.91845        -0.17009
C         12.30247        10.05672        -0.41617
C         13.54195        12.05303        -1.17639
C         12.27199        12.82190        -1.32573
C         13.54729        14.91502        -1.87244
C         12.27070        14.20784        -1.56943
C         13.60865        16.36388        -1.57447
C         12.32969        17.12533        -1.60151
C         13.57407        19.13241        -0.58169
C         12.30773        18.50393        -1.02081
C         13.57508        20.47365        -0.27187
C         12.30007        21.18512        -0.10621
C         13.61027        23.24612         0.47205
C         12.32419        22.55999         0.24130
C         13.58772        24.76580         0.50884
C         12.29000        25.43199         0.38749
C         13.53602        27.66046        -0.15126
C         12.25492        26.90127         0.18878
C         13.56224        29.08207         0.41457
C         12.41015        29.75190         0.77908
C         15.91388         4.00813         1.94070
C         14.69828         4.61696         1.54233
C         15.94231         6.78135         1.25538
C         14.69632         5.96674         1.07139
C         16.02522         7.97354         0.29688
C         14.73608         8.77052         0.26155
C         16.05615        10.81233        -0.34001
C         14.79295        10.11239        -0.13995
C         16.06899        12.15886        -0.76585
C         14.86533        12.71752        -1.41743
C         16.09902        14.91987        -1.62737
C         14.85234        14.15779        -1.84816
C         16.06995        16.24808        -1.28864
C         14.78950        16.95817        -1.21489
C         16.06128        19.08397        -0.88007
C         14.82268        18.30143        -0.51469
C         16.07565        20.54452        -0.58512
C         14.82555        21.21393        -0.17608
C         16.12542        23.29829         0.12917
C         14.87477        22.56071         0.11545
C         16.10029        24.75375         0.42988
C         14.83055        25.52903         0.27075
C         16.05606        27.65520        -0.10468
C         14.80641        26.87956         0.12203
C         16.04874        29.11316         0.17042
C         14.82027        29.76286         0.40001
C         18.42642         3.99375         2.06819
C         17.17241         4.66130         1.77301
C         18.49045         6.57519         0.91561
C         17.20699         5.96895         1.28244
C         18.53276         8.03545         0.48417
C         17.25734         8.83715         0.66657
C         18.55254        10.82928        -0.15152
C         17.29562        10.17143        -0.02708
C         18.59110        12.19934        -0.57699
C         17.30846        12.99246        -0.62196
C         18.61618        14.89750        -1.51352
C         17.36574        14.12446        -1.75111
C         18.59033        16.21254        -1.02285
C         17.32276        16.95084        -0.98922
C         18.51587        19.04297        -0.35100
C         17.32116        18.31251        -0.79597
C         18.54009        20.52784        -0.41738
C         17.36819        21.23750        -0.37291
C         18.62544        23.37806        -0.12296
C         17.34481        22.67099        -0.13221
C         18.65657        24.78175         0.05072
C         17.39534        25.49604         0.32767
C         18.61679        27.69112         0.16487
C         17.36801        26.93970        -0.04596
C         18.54699        29.10659         0.27711
C         17.27945        29.77879         0.28793
C         19.63360         4.62706         1.93422
C         20.91730         6.67294         1.28930
C         19.73246         5.95304         1.38954
C         20.95498         8.03083         0.87724
C         19.81104         8.75904         0.56440
C         20.99754        10.85967        -0.00283
C         19.79125        10.15678         0.17330
C         21.01825        12.12257        -0.58098
C         19.82301        12.81041        -0.86522
C         21.12009        14.93126        -1.36383
C         19.89831        14.12498        -1.68040
C         21.05928        16.21872        -0.93630
C         19.81456        16.88892        -0.72019
C         21.05401        19.09252        -0.09452
C         19.81274        18.27830        -0.22843
C         21.04842        20.42982        -0.19263
C         19.85716        21.21052        -0.70481
C         21.03258        23.43001        -0.41919
C         19.84518        22.68899        -0.35477
C         21.04995        24.81442        -0.23555
C         19.86051        25.52432         0.00286
C         21.02316        27.74199         0.36613
C         19.84363        26.99222         0.19314
C         20.97067        29.13674         0.49317
C         19.76088        29.81998         0.44583
O         18.53554         6.99675        -0.51631
O         14.26892        11.77792        -2.40249
O         16.74064        27.23581        -1.34403
O         14.18479        14.44911        -3.11653
O          7.82920        14.57194        -2.98990
O         10.28881        16.86433        -2.92681
O         10.50989         9.91057        -2.13723
O          7.67869        19.20104        -2.03314
O         16.83442        25.16911         1.64587
O          4.47820        26.00610         2.37854
O          1.53578        15.43065         0.92759
O          9.03755         5.67870        -0.80077
O         12.34024        18.31792        -2.46615
O          2.96181        26.17253        -0.92206
O         18.96469        18.50285         0.96146
O          1.80636        18.13993         1.41401
O          5.06226        21.43856         2.15396
O          2.58810        12.39026        -2.77106
O         15.95969        20.00772        -1.99232
O         10.11169        26.01384         2.38537
O          1.27930         6.25733        -1.38626
O          4.49359         9.78377        -2.64579
O          2.77307         7.01704         1.76801
O         13.67480        23.96098         1.74595
O         11.18379        27.39197        -0.72912
O         13.55366        27.83954        -1.59393
H         12.62192        28.00864        -1.86625
O         12.00022         9.23295         1.80869
H         12.13541         8.43665         2.36924
O         11.07686        18.43713         0.98806
H         10.43428        18.93126         1.54177
O          0.60169        20.54057         2.07940
H          1.07735        19.84027         2.57958
O         17.20345        13.78796         0.59831
H         17.15584        13.16990         1.35815
O         20.06351        13.68971        -3.05904
H         19.18685        13.36465        -3.37618
O          3.36235        23.43516         2.71259
H          3.66388        22.61167         3.16020
O         16.15904         7.43181        -1.02890
H         16.24711         8.17095        -1.66538
O          6.21223        27.63679         3.12089
H          5.69058        26.85767         3.43459
O          2.23828         4.92487         3.10487
H          2.55726         5.85554         3.19820
O          1.66362        17.54281        -2.09381
H          2.32975        17.40454        -2.80923
O          4.64877        16.28568         1.00684
H          3.74655        16.49009         1.34119
O          7.50397         6.52771         2.40047
H          6.74247         6.23753         2.94639
O         13.36365        11.55512         1.15032
H         12.95697        10.87280         1.74191
O          1.22459        25.13317         1.78520
H          1.89217        24.61813         2.30181
O         11.30647        28.90945         2.66741
H         11.07956        29.76619         3.08536
O          1.53593        28.54992        -1.79153
H          1.83685        27.82347        -2.37830
O         17.39760        13.45332        -3.02633
H         16.48521        13.19397        -3.28071
O         15.76609         7.30257         2.62462
H         15.77232         6.52984         3.22943
O          1.94936         9.25570        -2.95112
H          2.79845         9.05591        -3.40763
O         19.98546        21.15011        -2.17037
H         19.23045        21.64167        -2.55898
O          3.88705        16.62042        -2.55799
H          4.62196        16.04269        -2.85941
O         17.23994         9.18616         2.07978
H         16.35461         9.54933         2.29370
O          5.10995        12.84971        -3.34673
H          4.22756        12.88079        -3.78203
O         15.01133        17.97528         0.90346
H         14.17554        17.59712         1.24954
H          1.16137         2.70316         1.75307
H         -0.97863         3.66943         1.00810
H         -1.12278         5.92573         0.02652
H         -1.06566         7.75383        -0.98767
H         -1.09088        10.18987        -1.03471
H         -0.93664        11.94576        -0.15957
H         -0.90869        14.33228         0.28155
H         -1.12116        16.33858        -0.35308
H         -1.14766        18.75506         0.09630
H         -0.84323        20.66257        -0.56533
H         -0.63609        23.09401        -0.80361
H         -0.68960        25.18293        -0.48503
H         -0.58181        27.45771        -0.85044
H          0.35201        29.70033         0.50656
H          3.67548         2.83006         1.81273
H          2.25133        30.67842         1.70344
H          6.05815         2.75054         1.51903
H          4.90072        30.86193         1.51446
H          8.53251         2.76193         1.68468
H          7.34928        30.81149         0.89111
H         11.02743         2.86787         1.93999
H          9.78503        30.82886         0.90963
H         13.43778         2.89689         2.00845
H         12.50502        30.81068         1.07675
H         15.89462         2.97591         2.31967
H         14.83540        30.82971         0.67554
H         18.38672         2.96620         2.45783
H         17.27550        30.86611         0.46132
H         20.55939         4.10961         2.22664
H         21.86044         6.19405         1.59111
H         21.93573         8.52721         0.87973
H         21.95377        10.37462         0.23431
H         21.98698        12.58296        -0.81418
H         22.09950        14.47185        -1.55659
H         21.99341        16.76776        -0.75113
H         21.97473        18.58089         0.22627
H         21.98279        20.98004        -0.00604
H         21.98057        22.91750        -0.63407
H         22.01056        25.34379        -0.29523
H         22.00012        27.24092         0.40167
H         21.90609        29.69787         0.62737
H         19.73839        30.91490         0.54103
