         424
 CSIRO Nanostructure Databank - Neutral Graphene Oxide Data Set
C          1.32133         2.07557         0.41248
C          1.34782         3.45191         0.73393
C          2.46456         1.42464         0.00416
C          2.52708         4.19129         0.66482
C          1.33133         6.38024         0.94703
C          1.33118         7.75513         1.06195
C          2.54625         5.64678         0.87935
C          2.54087         8.49192         1.08037
C          1.34976        10.67284         1.36383
C          1.35855        12.04979         1.43669
C          2.54742         9.93450         1.16085
C          2.55650        12.79105         1.27452
C          1.41674        15.00660         1.64454
C          1.47174        16.39008         1.75579
C          2.56449        14.23435         1.32852
C          2.65014        17.11600         1.45981
C          2.74004        18.49939         1.88524
C          3.70520         2.12828        -0.05991
C          3.74024         3.52064         0.29281
C          4.89783         1.47199        -0.40709
C          4.97707         4.21212         0.27937
C          3.76078         6.34427         0.93498
C          3.77788         7.77663         1.01095
C          5.06094         5.55879         0.96479
C          5.00149         8.51806         0.96738
C          3.76865        10.64899         1.02949
C          3.77422        12.08039         1.04821
C          5.00693         9.92541         0.90606
C          5.00282        12.79045         0.84637
C          3.77663        14.92566         1.04558
C          3.76778        16.35054         0.99388
C          5.00090        14.21656         0.80190
C          4.94339        16.97304         0.51321
C          3.84919        19.31194         1.94676
C          5.07621        19.01117         1.24750
C          6.13174         2.16088        -0.43272
C          6.16405         3.56651        -0.10139
C          7.33294         1.47642        -0.71246
C          7.43285         4.26882        -0.14406
C          6.18664         6.41705         0.35289
C          6.30185         7.76686         1.07976
C          7.49475         5.67261         0.17484
C          7.51093         8.53904         0.64133
C          6.23766        10.65175         0.72814
C          6.23180        12.07036         0.68027
C          7.47964         9.92597         0.56282
C          7.45717        12.79418         0.48826
C          6.22188        14.93386         0.58924
C          6.18783        16.35181         0.48606
C          7.46287        14.22010         0.43591
C          7.40338        17.19528         0.30897
C          6.39142        19.23194         1.57959
C          7.50597        18.56502         0.91507
C          8.58084         2.15122        -0.76026
C          8.60832         3.58446        -0.49806
C          9.75284         1.46546        -1.07217
C          9.85867         4.28672        -0.58233
C          8.69389         6.36178         0.11191
C          8.80796         7.77293         0.65520
C          9.90261         5.69460        -0.29204
C          9.96042         8.54392         0.08209
C          8.70152        10.66352         0.33645
C          8.68698        12.08114         0.32473
C          9.92674         9.95731         0.10144
C          9.91250        12.80486         0.18657
C          8.68135        14.93186         0.27080
C          8.71016        16.40763         0.17774
C          9.91671        14.23256         0.22613
C          9.98306        17.09040         0.45092
C          8.75152        19.15810         1.00107
C          9.99300        18.48714         0.71023
C         11.01608         2.18721        -1.41522
C         11.04793         3.60518        -0.90794
C         12.26956         1.43592        -1.08268
C         12.28993         4.28659        -0.90172
C         11.10453         6.41292        -0.47944
C         11.12230         7.86123        -0.33641
C         12.31648         5.72023        -0.79243
C         12.29890         8.58375        -0.62764
C         11.13585        10.68192        -0.10628
C         11.13760        12.10215         0.00372
C         12.34430         9.98290        -0.41293
C         12.37127        12.80999        -0.03013
C         11.16583        14.93784         0.22578
C         11.19233        16.36159         0.39714
C         12.39265        14.22374         0.14152
C         12.44000        17.04433         0.50684
C         11.22787        19.15816         0.82068
C         12.45459        18.46523         0.69129
C         13.48119         2.10571        -0.97820
C         13.51027         3.56238        -1.00749
C         14.71819         1.40722        -0.86212
C         14.74280         4.25495        -1.02711
C         13.52936         6.41611        -1.01368
C         13.42530         7.89293        -1.35304
C         14.75423         5.70103        -1.11538
C         14.75832         8.64333        -1.28431
C         13.58539        10.69209        -0.42557
C         13.60129        12.09218        -0.13852
C         14.82007        10.01085        -0.70667
C         14.82907        12.76960         0.04151
C         13.64402        14.90808         0.23959
C         13.66560        16.31915         0.43273
C         14.87277        14.17332         0.21666
C         14.91370        16.99857         0.54720
C         13.70758        19.13380         0.74965
C         14.91649        18.42904         0.66777
C         15.95014         2.08454        -0.88825
C         15.96991         3.53025        -0.99435
C         17.17538         1.37793        -0.82172
C         17.20957         4.21532        -1.03656
C         16.00383         6.37246        -1.22275
C         16.03482         7.85211        -1.29484
C         17.22912         5.65626        -1.14356
C         17.28143         8.54672        -0.95155
C         16.04143        10.61253        -0.42837
C         16.04878        11.93824         0.30345
C         17.29075         9.90054        -0.61119
C         17.33085        12.72581         0.22086
C         16.12608        14.85247         0.39480
C         16.14196        16.26821         0.53643
C         17.36364        14.08951         0.39337
C         17.39007        16.99033         0.58317
C         16.17680        19.11185         0.68691
C         17.36941        18.42482         0.61344
C         18.42002         2.04287        -0.87478
C         18.43454         3.48882        -0.99191
C         19.63577         1.33178        -0.81252
C         19.67173         4.17196        -1.04584
C         18.48156         6.33226        -1.13818
C         18.53368         7.82740        -1.34826
C         19.69137         5.61000        -1.08371
C         19.78199         8.47189        -0.82785
C         18.54580        10.55395        -0.34065
C         18.56097        11.91142         0.23884
C         19.76878         9.84196        -0.45954
C         19.87960        12.62711         0.39570
C         18.60497        14.82099         0.92539
C         18.62367        16.29134         0.53625
C         19.99816        14.11846         0.72885
C         19.82962        16.97728         0.26628
C         18.66380        19.19461         0.70800
C         19.87503        18.40722         0.27083
C         20.90125         1.98141        -0.91383
C         20.90467         3.44383        -1.02516
C         22.09231         1.25850        -0.91158
C         22.11554         4.14147        -1.02818
C         20.95369         6.29928        -1.04760
C         20.98579         7.73935        -0.88797
C         22.15564         5.56843        -1.02816
C         22.22548         8.41263        -0.76817
C         21.03037        10.52663        -0.31273
C         21.07138        11.93450        -0.12828
C         22.24584         9.82663        -0.54153
C         22.24314        12.64388        -0.39343
C         20.99517        14.85952        -0.14098
C         21.00919        16.22834        -0.13819
C         22.20030        14.12374        -0.69847
C         22.20725        16.97626        -0.69594
C         21.06296        19.09137         0.05218
C         22.27784        18.42686        -0.27414
C         23.39778         1.93275        -1.24526
C         23.36293         3.37913        -0.81029
C         24.66992         1.25102        -0.80944
C         24.66224         4.12134        -0.77086
C         23.43329         6.25891        -1.08885
C         23.45740         7.70714        -1.01926
C         24.63080         5.55196        -1.07898
C         24.66109         8.40305        -1.04592
C         23.47303        10.54242        -0.52918
C         23.46791        11.94109        -0.52409
C         24.76866         9.78622        -0.46443
C         24.71417        12.68248        -0.72200
C         23.49344        14.78773        -0.17547
C         23.52104        16.26069        -0.46970
C         24.72331        14.04996        -0.65236
C         24.72009        16.95017        -0.56982
C         23.49298        19.09206        -0.29966
C         24.73629        18.40954        -0.51215
C         25.89043         1.93498        -0.75327
C         25.93748         3.38450        -0.86965
C         27.13295         1.25112        -0.59551
C         27.13639         4.08527        -0.86941
C         25.89491         6.19689        -1.41483
C         25.89723         7.73780        -1.41631
C         27.16922         5.52759        -1.08447
C         27.18309         8.42991        -1.24021
C         25.95844        10.55491        -0.98314
C         25.93131        11.93600        -1.02154
C         27.18552         9.83013        -1.18011
C         27.17070        12.67149        -1.18658
C         25.89431        14.82318        -1.20226
C         25.97233        16.25104        -0.72437
C         27.17976        14.05199        -1.11191
C         27.17546        16.94624        -0.81593
C         25.95164        19.08469        -0.56988
C         27.19057        18.39554        -0.74596
C         28.36462         1.93955        -0.55736
C         28.38752         3.38202        -0.69005
C         29.58714         1.26674        -0.32648
C         29.58331         4.09245        -0.57221
C         28.34367         6.25145        -0.99905
C         28.39858         7.69202        -1.18187
C         29.55577         5.59160        -0.39904
C         29.63705         8.38344        -1.20316
C         28.42289        10.53604        -1.36516
C         28.39524        11.92904        -1.37847
C         29.67456         9.80197        -1.44071
C         29.57416        12.66071        -1.83325
C         28.48333        14.76271        -0.89284
C         28.41254        16.25471        -1.09539
C         29.63719        14.09599        -1.61316
C         29.56303        16.95576        -1.38550
C         28.40210        19.07743        -0.90681
C         29.60894        18.39857        -1.23498
C         30.80505         1.97173        -0.20257
C         30.81199         3.41016        -0.34321
C         32.00838         1.31259         0.13912
C         32.02316         4.13693        -0.22702
C         30.85870         6.27824        -0.71412
C         30.88220         7.66938        -1.02046
C         32.04565         5.56984        -0.46406
C         32.11285         8.36686        -1.08208
C         30.90464        10.46928        -1.62781
C         30.93004        11.88248        -2.03323
C         32.16273         9.78698        -1.41461
C         32.17028        12.68256        -2.10740
C         30.78056        14.76911        -1.95329
C         30.74889        16.25798        -1.94365
C         32.01522        14.06668        -2.29103
C         32.02647        17.03670        -2.07673
C         30.83801        19.08263        -1.30461
C         32.06486        18.43318        -1.60413
C         33.20559         2.02920         0.33757
C         33.23054         3.45552         0.09504
C         34.37507         1.38369         0.81254
C         34.44554         4.17181         0.23215
C         33.28184         6.27526        -0.42359
C         33.31915         7.66580        -0.75777
C         34.48263         5.59954        -0.03818
C         34.54041         8.36941        -0.68910
C         33.37079        10.47087        -1.53357
C         33.48451        11.84731        -2.21057
C         34.67542         9.72889        -1.32327
C         34.74270        12.58390        -1.73238
C         33.12849        14.95782        -2.60901
C         33.27722        16.26813        -2.26111
C         34.98261        13.86748        -2.14384
C         34.63343        16.96959        -2.38479
C         33.30596        19.04111        -1.50288
C         34.55106        18.38429        -1.79799
C         35.54549         2.10973         1.07784
C         35.59688         3.50902         0.74137
C         36.70280         1.49720         1.65551
C         36.77818         4.24676         1.01667
C         35.66164         6.33449         0.13817
C         35.68453         7.74151        -0.12960
C         36.96225         5.59013         0.35763
C         36.80634         8.54166         0.25169
C         35.74191        10.54928        -0.62990
C         35.98700        11.90510        -1.20240
C         36.76953         9.95227         0.07567
C         36.84510        12.81458        -0.35395
C         35.86911        14.79804        -1.49319
C         35.80911        16.20766        -1.70148
C         36.81105        14.23369        -0.56831
C         36.89096        16.97406        -1.23383
C         35.70989        19.06793        -1.55923
C         37.04124        18.38902        -1.76117
C         37.80076         2.25709         2.02542
C         37.81884         3.66808         1.74567
C         38.99685         1.66596         2.61814
C         38.85354         4.50825         2.32322
C         38.05615         6.43980         1.01274
C         37.98185         7.93899         0.90424
C         38.88032         5.85469         2.09105
C         38.82857         8.76495         1.78465
C         38.00369        10.75066         0.46621
C         37.78933        12.25217         0.48831
C         38.56018        10.24976         1.80556
C         38.70596        13.07852         1.21658
C         37.74158        15.06200         0.09399
C         37.82227        16.45276        -0.27891
C         38.68347        14.49275         1.01544
C         38.78580        17.28590         0.32129
C         38.14499        19.16416        -1.12252
C         38.97412        18.64407        -0.14157
C         39.98844         2.42096         3.13345
C         39.83425         3.91018         3.31523
C         41.13252         4.69061         3.27014
C         39.77653         6.72544         2.95646
C         39.81050         8.19839         2.57792
C         41.11384         6.01811         3.08686
C         40.71728         9.05300         3.26590
C         39.72047        11.07251         2.30942
C         39.67578        12.49908         2.10771
C         40.71052        10.43632         3.06784
C         40.55735        13.36510         2.78555
C         39.60932        15.32840         1.70069
C         39.55373        16.83201         1.53979
C         40.51296        14.74621         2.59342
C         40.90357        17.49521         1.60606
C         40.09709        19.39953         0.33001
C         41.08636        18.76375         1.10110
O         31.12926        16.84982        -3.24005
O         23.95067         3.70858         0.48089
O          8.02304        17.00544        -0.99386
O          4.86130        18.28894         0.05377
O         15.48054         8.47071        -2.55886
O         38.85664         7.12450        -0.00757
O         30.02839        12.20302        -3.13839
O         19.29116        11.91641         1.53257
O         25.85871         6.95720        -2.65969
O         34.22760        14.34758        -3.22601
O         37.42613         5.25656        -0.98787
H         38.02321         5.99323        -1.26396
O         39.28543         4.08204         4.67265
H         38.44352         3.58005         4.71130
O         23.41503        14.63106         1.28613
H         24.22779        15.01495         1.67899
O          5.33905         5.20202         2.34257
H          5.56741         6.02821         2.83020
O         15.96062        11.55353         1.73775
H         16.26073        12.32400         2.26751
O          5.76014         6.76548        -0.99344
H          5.68763         5.93643        -1.51194
O         12.99690         7.91974        -2.75407
H         13.82412         7.92967        -3.29241
O         22.17697        14.21638        -2.14107
H         22.07517        15.17439        -2.38096
O         28.77873        14.58298         0.54864
H         29.55670        15.14003         0.76439
O          9.17352         7.58975         2.07952
H          8.37155         7.22283         2.52584
O         36.82992        11.62454        -2.39798
H         36.43458        10.81211        -2.81568
O         38.78229        17.32978         2.70948
H         38.78964        18.30940         2.65400
O         37.46447        10.45256         2.76498
H         37.77769        10.14248         3.64155
O         39.17207         6.77279         4.28634
H         39.19439         5.85163         4.65804
O         20.66734        14.15315         2.03135
H         21.64590        14.19334         1.88716
O         29.39819         5.78800         1.06480
H         28.59806         5.29039         1.33968
O         23.45579         1.99576        -2.72460
H         23.42914         1.07554        -3.06204
O         18.85519        19.60966         2.08116
H         18.87081        18.80279         2.63675
O         35.20937         9.47906        -2.70829
H         34.58708         9.91913        -3.33999
O         34.94499        17.10510        -3.79782
H         34.88172        16.20444        -4.18792
O          6.50427         7.52362         2.53417
H          6.46404         8.40010         2.97458
O         25.59970        14.96403        -2.65150
H         25.41748        14.06614        -3.00410
O         37.34387        18.33352        -3.18562
H         36.54816        17.95271        -3.63962
O         22.02512        16.98778        -2.16833
H         22.79373        17.46293        -2.55278
O         38.99404        10.50810        -0.56028
H         38.60345        10.82280        -1.40929
O         25.05877         9.58835         0.97415
H         24.25825         9.19401         1.38210
O         18.31636        14.84260         2.35381
H         19.13414        14.53389         2.81417
O         33.64784        11.56261        -3.64037
H         33.82817        12.42789        -4.07566
O         18.59215         8.02484        -2.82287
H         17.67523         7.94276        -3.16790
O         10.99209         2.30422        -2.91001
H         10.27840         2.93921        -3.13547
H          0.36961         1.52988         0.47913
H          0.40714         3.92859         1.04074
H          2.43923         0.35764        -0.25959
H          0.36770         5.85641         0.89516
H          0.36607         8.27696         1.10405
H          0.39304        10.14822         1.48480
H          0.40924        12.57493         1.60738
H          0.46646        14.50419         1.87084
H          0.58051        16.93640         2.09883
H          1.83703        18.86934         2.39941
H          4.87816         0.39607        -0.63626
H          3.79363        20.22944         2.55284
H          7.29978         0.39755        -0.92561
H          6.63291        19.91198         2.41073
H          9.70227         0.38472        -1.27618
H          8.81745        20.18029         1.40451
H         12.24354         0.33633        -1.05218
H         11.23873        20.24142         1.01228
H         14.70838         0.30837        -0.80563
H         13.72716        20.22842         0.85833
H         17.15512         0.28116        -0.73416
H         16.18374        20.20943         0.76158
H         19.60740         0.23564        -0.71703
H         18.58980        20.13727         0.10733
H         22.05672         0.15992        -0.83705
H         21.08107        20.18395         0.18627
H         24.67605         0.15184        -0.73395
H         23.51941        20.16973        -0.07551
H         27.12989         0.15576        -0.48996
H         25.96074        20.18413        -0.52100
H         29.58382         0.17433        -0.19468
H         28.41791        20.17456        -0.82241
H         31.99879         0.22433         0.30112
H         30.85795        20.15685        -1.06625
H         34.34314         0.30492         1.02647
H         33.36373        20.08012        -1.14257
H         36.69477         0.41370         1.84713
H         35.67118        20.08895        -1.14897
H         39.08825         0.56891         2.60021
H         38.34153        20.17383        -1.51563
H         40.88149         1.94251         3.56357
H         42.08044         4.14692         3.40264
H         42.04816         6.59939         3.06518
H         41.47412         8.60982         3.92771
H         41.51369        11.02807         3.52982
H         41.28580        12.96021         3.50087
H         41.20151        15.37708         3.17181
H         41.72007        17.01644         2.16388
H         40.25151        20.42055        -0.04402
H         42.03743        19.28645         1.28265
