         404
 CSIRO Nanostructure Databank - Neutral Graphene Oxide Data Set
C          1.30147         3.98944        -3.08215
C          0.14164         4.68565        -2.66608
C          1.17776         6.47915        -1.22752
C          0.06637         5.78256        -1.81760
C          1.10892         7.87723        -0.87432
C         -0.05515         8.65001        -0.99086
C          1.07162        10.81109        -0.58233
C         -0.08176        10.04213        -0.82282
C          1.06875        12.23417        -0.51154
C         -0.11990        12.99106        -0.45945
C          1.12153        15.05527         0.03581
C         -0.09036        14.35658        -0.22147
C          1.06599        16.43563         0.56775
C         -0.10845        17.29339         0.38193
C          1.16012        19.31183         1.00585
C         -0.06640        18.61843         0.67647
C          1.16193        20.72370         1.31037
C         -0.05556        21.43458         1.46079
C          1.14195        23.47279         2.00685
C         -0.06499        22.77668         1.78581
C          1.11574        24.89722         2.40882
C         -0.13179        25.70966         2.30397
C          1.17481        27.56464         1.30921
C         -0.10222        26.98096         1.88084
C          1.16690        29.05020         1.02971
C         -0.01275        29.70075         0.70078
C          1.16920        31.71035        -0.00828
C         -0.02001        31.02966         0.23636
C          1.17169        33.08159        -0.52866
C         -0.01906        33.84404        -0.57319
C          1.20054        35.73557        -1.49426
C         -0.00119        35.14102        -1.05164
C          1.20507        37.11743        -1.87619
C          3.77060         3.59919        -2.82082
C          2.50078         3.99697        -2.36131
C          3.63911         6.46744        -0.73558
C          2.40069         5.80895        -0.99702
C          3.63620         7.88192        -0.49338
C          2.32444         8.53741        -0.35998
C          3.61581        10.75429        -0.30330
C          2.31542        10.08046        -0.26266
C          3.64690        12.22404        -0.44638
C          2.34621        12.98660        -0.50402
C          3.61880        15.09749         0.09232
C          2.35973        14.40933        -0.09278
C          3.64534        16.47724         0.40001
C          2.40040        17.16356         0.77774
C          3.62244        19.32563         0.94597
C          2.37830        18.62723         0.89914
C          3.63360        20.71137         1.26494
C          2.39879        21.41414         1.49149
C          3.62278        23.54139         1.98975
C          2.37721        22.80948         1.84487
C          3.67022        24.92168         2.13102
C          2.41669        25.64873         2.41033
C          3.66184        27.86583         1.96595
C          2.37381        27.12775         2.13738
C          3.66164        29.14816         1.22928
C          2.41679        29.73606         0.86365
C          3.64074        31.62859        -0.09867
C          2.40929        31.03972         0.27237
C          3.59083        32.82291        -0.97054
C          2.37135        33.65368        -1.00506
C          3.65702        35.62079        -1.93508
C          2.41574        34.98978        -1.50051
C          3.64656        37.06121        -2.17096
C          2.37959        37.75123        -2.14342
C          6.23184         3.44657        -2.56388
C          4.96409         3.80121        -2.09090
C          6.10148         6.48290        -0.64650
C          4.87281         5.76978        -0.73638
C          6.10152         7.91523        -0.46248
C          4.82916         8.59699        -0.31359
C          6.05428        10.75917         0.05341
C          4.78909        10.03596        -0.18611
C          6.06430        12.23166        -0.03954
C          4.89785        12.94140        -0.10845
C          6.08069        15.08097         0.24846
C          4.88102        14.39773         0.01800
C          6.12006        16.50753         0.33832
C          4.86481        17.22276         0.40636
C          6.05956        19.41002         0.51011
C          4.83717        18.62428         0.65126
C          6.08728        20.77640         1.03558
C          4.89792        21.38734         1.39849
C          6.14803        23.52329         2.05375
C          4.87426        22.75891         1.96454
C          6.11928        24.99015         2.12188
C          4.91919        25.68688         2.15193
C          6.15562        27.87648         2.04697
C          4.93785        27.13753         2.10233
C          6.13252        29.26001         1.52535
C          4.89142        29.80164         0.99305
C          6.12060        31.66189        -0.14771
C          4.87487        31.03544         0.24021
C          6.15923        32.89973        -0.89836
C          4.88159        33.46582        -1.38327
C          6.11701        35.34418        -2.28400
C          4.85429        34.86396        -1.86659
C          6.08851        37.46019        -2.51414
C          4.77157        37.90760        -2.24229
C          8.73195         3.65210        -2.33728
C          7.43758         3.81535        -1.90668
C          8.58404         6.48375        -1.00106
C          7.34276         5.81491        -0.78805
C          8.58111         7.92469        -0.72454
C          7.33514         8.58290        -0.42334
C          8.61453        10.77994        -0.13975
C          7.35768        10.00734        -0.02964
C          8.62379        12.17010         0.03762
C          7.36726        12.97830        -0.19374
C          8.62810        15.03835         0.44146
C          7.32953        14.28193         0.58566
C          8.61240        16.45025         0.53928
C          7.36953        17.17615         0.46069
C          8.68160        19.32533         0.77311
C          7.43347        18.63406         0.38041
C          8.68362        20.74071         1.05779
C          7.39514        21.49542         1.04216
C          8.65933        23.55171         1.99967
C          7.39922        22.91024         1.51635
C          8.67936        25.02237         2.07764
C          7.38216        25.67225         2.52751
C          8.61511        27.72463         2.61743
C          7.36369        27.15089         2.30883
C          8.57576        29.73487         1.93173
C          7.30056        30.04103         1.31118
C          8.59898        31.68081        -0.07607
C          7.30544        31.12850         0.37631
C          8.63731        32.97850        -0.84067
C          7.34277        33.60816        -1.11725
C          8.54824        35.69875        -1.84910
C          7.35277        34.90085        -1.75998
C          8.51888        37.13036        -2.10868
C          7.32536        37.94319        -2.11719
C         11.10084         3.75492        -1.84357
C          9.85179         4.37655        -1.76035
C         11.03063         6.52375        -1.45623
C          9.76960         5.76426        -1.33215
C         11.02974         8.02473        -1.10463
C          9.78382         8.65553        -0.64929
C         11.04971        10.76213        -0.14631
C          9.82665        10.05962        -0.28936
C         11.07598        12.15981         0.09692
C          9.84580        12.87606         0.16370
C         11.08159        15.02777         0.38768
C          9.83869        14.31962         0.34543
C         11.07158        16.43542         0.50576
C          9.85559        17.16136         0.60213
C         11.14057        19.23184         1.29512
C          9.85704        18.58487         0.82918
C         11.14816        20.73681         1.27155
C          9.89014        21.40835         1.31952
C         11.18421        23.58475         1.74715
C          9.93105        22.80866         1.80453
C         11.16043        24.98994         1.94270
C          9.88672        25.70349         2.10395
C         11.10154        27.93571         2.35281
C          9.86819        27.12804         2.38107
C         11.07266        29.43669         1.86149
C          9.81222        30.04728         1.40692
C         11.10555        32.05684         0.41033
C          9.83459        31.33197         0.67630
C         11.08882        33.26606        -0.44074
C          9.88068        33.78782        -0.90418
C         11.01899        35.84574        -1.56451
C          9.80655        35.11461        -1.45507
C         10.98509        37.21426        -2.00279
C          9.73501        37.83777        -2.16739
C         13.54133         3.70306        -1.45133
C         12.33219         4.40431        -1.52896
C         13.52973         6.53856        -1.25255
C         12.32772         5.83082        -1.38992
C         13.50590         7.96825        -1.00949
C         12.32411         8.64161        -0.78608
C         13.59071        10.74454        -0.02550
C         12.30888         9.99369        -0.17940
C         13.56922        12.21188         0.11587
C         12.33393        12.89107         0.19563
C         13.57980        15.01134         0.39894
C         12.33412        14.31115         0.31368
C         13.61217        16.43773         0.45621
C         12.34574        17.16713         0.35915
C         13.64391        19.31813         0.89764
C         12.36542        18.65520         0.62974
C         13.63045        20.72884         1.22332
C         12.36569        21.42852         1.38163
C         13.62605        23.57783         1.64721
C         12.39396        22.87081         1.57547
C         13.60504        24.98263         1.86852
C         12.39356        25.69169         2.03102
C         13.68537        27.92370         2.02747
C         12.41206        27.16562         2.30111
C         13.61277        29.27302         1.34653
C         12.31807        30.00349         1.21411
C         13.61887        32.13162         0.55471
C         12.36071        31.40051         0.74962
C         13.57502        33.38869        -0.24269
C         12.33463        33.95239        -0.63443
C         13.48088        35.94767        -1.50612
C         12.27711        35.24901        -1.24559
C         13.43430        37.29042        -2.03941
C         12.19321        37.91635        -2.22175
C         15.97813         3.66974        -1.08887
C         14.76566         4.38442        -1.23749
C         16.01853         6.48543        -0.99579
C         14.77920         5.81911        -1.17404
C         16.07908         7.95876        -1.09400
C         14.78922         8.71897        -1.05058
C         16.10245        10.78682        -0.20023
C         14.83019        10.14680        -0.60316
C         16.06193        12.16752         0.16617
C         14.81105        12.88772         0.20747
C         16.05543        14.99288         0.56854
C         14.81726        14.29907         0.39269
C         16.06009        16.41790         0.70985
C         14.82273        17.13987         0.62683
C         16.09314        19.25391         0.92652
C         14.83894        18.58086         0.78338
C         16.09107        20.74833         0.75788
C         14.83514        21.43606         1.24562
C         16.11466        23.51664         1.48292
C         14.87613        22.85595         1.47085
C         16.19010        24.95897         1.76436
C         14.89654        25.70067         1.97098
C         16.09708        27.84240         1.55905
C         14.92930        27.15983         1.75238
C         16.00371        29.29402         1.59914
C         14.89603        30.01950         1.25688
C         16.29345        32.17428         0.41643
C         14.95153        31.48269         0.90019
C         16.05846        33.35377        -0.53949
C         14.79312        34.01806        -0.64627
C         15.92017        35.93760        -1.75679
C         14.72824        35.30102        -1.29422
C         15.87421        37.29729        -2.27599
C         14.64405        37.95591        -2.36485
C         18.39291         3.58799        -0.58718
C         17.18184         4.32964        -0.82171
C         18.44368         6.43359        -0.41095
C         17.21193         5.76381        -0.77051
C         18.50843         7.84484        -0.26295
C         17.35191         8.66603        -0.67183
C         18.50825        10.69976         0.22648
C         17.29725        10.07250        -0.20684
C         18.50432        12.10474         0.48718
C         17.27763        12.84403         0.43156
C         18.50648        14.94798         0.88316
C         17.27608        14.26420         0.63551
C         18.51038        16.37237         1.02403
C         17.28383        17.10498         0.92698
C         18.55345        19.23682         1.20155
C         17.29320        18.54122         1.01413
C         18.57215        20.66956         1.28558
C         17.36313        21.41146         1.19563
C         18.60151        23.52174         1.41477
C         17.36273        22.80559         1.35938
C         18.60576        24.96395         1.27914
C         17.41845        25.69262         1.38998
C         18.67551        27.83207         0.76073
C         17.31656        27.13354         0.94474
C         18.76846        29.18040         0.31381
C         17.77586        30.17166         0.67007
C         18.41574        31.64654        -1.08727
C         17.39895        31.23658        -0.08851
C         18.37981        33.11418        -1.51071
C         17.16720        33.91934        -1.19472
C         18.34400        35.77010        -2.45724
C         17.11856        35.21914        -1.75725
C         18.31311        37.27557        -2.63959
C         17.07932        37.94539        -2.64803
C         19.55073         4.22467        -0.24470
C         20.77492         6.30396         0.32423
C         19.59812         5.65472        -0.11436
C         20.81180         7.67743         0.49149
C         19.68056         8.48096         0.20029
C         20.88605        10.62061         0.71116
C         19.70753         9.93702         0.36866
C         20.89931        12.00044         0.90225
C         19.72528        12.77104         0.80185
C         20.91691        14.92029         1.24109
C         19.72662        14.21302         0.98525
C         20.92348        16.30312         1.36573
C         19.73998        17.05832         1.25046
C         20.96431        19.22152         1.56833
C         19.75247        18.50899         1.34160
C         20.99126        20.59740         1.62486
C         19.80422        21.36068         1.47618
C         21.04249        23.53216         1.36708
C         19.82434        22.80432         1.43922
C         21.04620        24.89656         1.11851
C         19.84942        25.63131         1.00894
C         20.99889        27.58363         0.00526
C         19.83830        27.03091         0.61398
C         20.99973        28.83843        -0.57444
C         19.86369        29.66660        -0.44567
C         20.82423        31.63484        -1.61933
C         19.74365        30.98416        -1.05273
C         20.78651        33.01736        -1.96345
C         19.65239        33.77529        -1.80322
C         20.85001        35.97598        -2.33151
C         19.62932        35.29251        -1.76572
C         20.76109        37.23302        -2.84883
C         19.51221        37.92314        -2.93554
O         12.24462        18.17439        -0.73603
O         14.72626         9.82202        -2.02709
O          5.62697        22.83863         3.25136
O          1.80587        25.20790         3.67194
O         10.95598         7.55972        -2.49732
O         10.22711        32.37634         1.65289
O          7.30998         4.44606        -0.64067
O         17.00966         8.46353        -2.09633
O         13.04324        10.01486         1.12510
O          6.71882        10.26310         1.28304
O         14.32498        32.33961         1.90414
O          8.55528        29.02246         3.12834
O          6.75527        19.22519        -0.76290
O          4.87129         4.38230        -0.79729
O         11.17344        29.07145         3.25559
O          9.27191        22.88181         3.15770
O          6.14513        36.28947        -3.30441
O          2.41141         4.41913        -1.01024
O          8.77597        31.66470        -1.52563
O          7.39168        22.65135         0.08169
O          2.15398         9.22383         0.91981
O         17.99844        32.01999        -2.42876
O         15.70142        25.30050         3.13833
O         12.84235        29.11601         0.09004
O          1.68178        16.51797         1.89281
O         17.17724        29.96340         1.91481
O          4.16304        32.55212        -2.30508
O          3.12637        12.70503        -1.74746
O          2.81340        27.96776         3.21727
O         13.26124        27.66232         3.39712
O         19.52415        35.67686        -0.36519
H         20.35064        35.41294         0.08974
O          7.43553        13.36716        -1.60080
H          7.43626        12.55720        -2.15195
O          7.20877        13.93406         1.99392
H          7.18593        14.76257         2.51618
O         16.84527        32.79688         1.60372
H         16.07990        33.08035         2.15771
O         18.37338        35.19615        -3.79273
H         17.53144        35.42000        -4.24074
O         16.85952        27.01239        -0.47076
H         17.58063        26.58433        -0.98168
O          1.39560        26.91526         0.01305
H          0.70564        27.23262        -0.60706
O         16.05468        20.96356        -0.71635
H         15.26921        20.48227        -1.05703
O          7.41585        25.49566         4.00472
H          7.35384        24.53274         4.19237
O         11.29556        18.85307         2.70997
H         10.64712        19.36984         3.23416
H          1.25872         3.42887        -4.02699
H         -0.79345         4.41726        -3.18392
H         -0.91922         6.26486        -1.74342
H         -0.99488         8.16060        -1.28113
H         -1.04110        10.55219        -0.98755
H         -1.09425        12.49107        -0.54352
H         -1.04509        14.89234        -0.13726
H         -1.03651        16.86073        -0.01704
H         -0.98737        19.20355         0.55240
H         -1.01620        20.91944         1.33605
H         -1.02430        23.29889         1.90216
H         -1.06738        25.28092         2.69554
H         -1.02359        27.58125         1.90025
H         -0.97715        29.18195         0.79135
H         -0.98934        31.49545         0.01649
H         -0.96507        33.42067        -0.21137
H         -0.92572        35.73582        -1.06492
H          0.25410        37.66889        -1.88590
H          3.85252         3.17931        -3.83286
H          2.38109        38.82796        -2.36776
H          6.30593         2.95246        -3.54195
H          4.61044        38.97948        -2.04756
H          8.95044         2.97568        -3.17581
H          7.41382        38.97496        -1.74514
H         11.13981         2.70375        -2.16475
H          9.70720        38.91505        -2.38815
H         13.54287         2.60712        -1.54306
H         12.15524        38.95511        -2.58138
H         15.96275         2.57138        -1.14828
H         14.60451        38.98710        -2.74594
H         18.36020         2.49162        -0.66554
H         17.04628        39.01246        -2.91778
H         20.46537         3.64817        -0.04333
H         21.66612         5.70073         0.54988
H         21.73998         8.14120         0.85082
H         21.83188        10.07316         0.81868
H         21.85636        12.47897         1.14853
H         21.87100        14.38490         1.33248
H         21.88435        16.80055         1.54978
H         21.90789        18.67595         1.69719
H         21.95185        21.10045         1.79783
H         22.00451        23.00777         1.43434
H         22.01491        25.40244         1.01120
H         21.89614        26.96085        -0.10518
H         21.88262        29.17797        -1.13233
H         21.79829        31.12794        -1.67117
H         21.73543        33.49287        -2.24949
H         21.83905        35.51253        -2.19859
H         21.67291        37.75689        -3.17234
H         19.50483        38.98905        -3.20735
