         287
 CSIRO Nanostructure Databank - Neutral Graphene Oxide Data Set
C        -10.97077         1.06329         0.79225
C         -9.79813         1.68951         0.10429
C         -8.85119         0.73640        -0.52307
C         -7.54432         1.43104        -0.66265
C         -6.26886         0.71025        -0.85739
C         -5.05611         1.46303        -0.46002
C         -3.78876         0.71275        -0.09883
C         -2.57217         1.44707        -0.72542
C         -1.26665         0.74614        -0.37126
C          0.00622         1.43122        -0.86838
C          1.23128         0.71428        -0.24473
C          2.52142         1.52035        -0.54763
C          3.71021         0.73928         0.00175
C          4.91880         1.45739         0.50770
C          6.20880         0.69303         0.45560
C          7.47920         1.42680         0.60769
C          8.75999         0.68938         0.86379
C          9.99767         1.40750         0.29983
C         10.51320         0.58628        -0.87061
C         -9.06808         3.03397         0.38216
C         -9.47233         4.21442        -0.46936
C         -7.54328         2.67802         0.20911
C         -6.39984         3.60330        -0.26701
C         -5.10470         2.81994        -0.28665
C         -3.83613         3.60561        -0.29850
C         -2.50123         2.87770        -0.15946
C         -1.32911         3.70714        -0.72853
C         -0.01823         2.99166        -0.78681
C          1.17342         3.71799        -0.21395
C          2.40834         2.92827         0.11556
C          3.64795         3.69801         0.62239
C          4.98233         2.94714         0.53031
C          6.14915         3.59438         0.78354
C          7.47842         2.88923         0.98800
C          8.62066         3.57538         0.27702
C          9.72662         2.86258        -0.06549
C         -8.87422         5.42874        -0.36029
C         -7.66575         5.76688         0.50101
C         -6.37840         5.09576        -0.01940
C         -5.07811         5.81403         0.22917
C         -3.80911         5.08686        -0.04026
C         -2.44377         5.70688         0.36661
C         -1.36642         5.23696        -0.63075
C         -0.01149         5.89456        -0.38476
C          1.16703         5.21526        -0.22874
C          2.45825         5.91231        -0.06732
C          3.75821         5.08470        -0.04172
C          4.87287         5.80797         0.71101
C          6.19412         5.08848         1.06841
C          7.40815         5.74415         0.41708
C          8.49412         5.01431         0.05149
C         -7.50978         7.27420         0.47910
C         -6.30894         7.91208         0.43257
C         -5.05364         7.15425         0.51397
C         -3.77659         7.92367         0.66289
C         -2.46158         7.23174         0.45497
C         -1.35721         8.07870        -0.21358
C         -0.03672         7.39213        -0.69988
C          1.24206         8.09524        -0.20964
C          2.48698         7.28261        -0.05567
C          3.77573         8.08372         0.02975
C          4.90479         7.28126         0.64197
C          6.20515         7.97702         0.77111
C          7.46934         7.26309         0.34999
C         -6.23106         9.32728         0.07338
C         -5.06888         9.99307        -0.05859
C         -3.77623         9.45415         0.48961
C         -2.50045         9.84659        -0.29505
C         -1.23697         9.43679         0.42202
C         -0.10208        10.09212         0.72861
C          1.21158         9.43096         0.50956
C          2.43413         9.89490         1.17939
C          3.66753         9.35593         0.86287
C          4.88187         9.93167         1.32820
C          6.13979         9.31090         1.12335
C        -11.00836        -0.26718         1.01705
C         -9.74035        -1.11479         0.94880
C         -8.96343        -0.77324        -0.35122
C         -7.59327        -1.47839        -0.40170
C         -6.31523        -0.78957        -0.80317
C         -4.99505        -1.51054        -0.63168
C         -3.72942        -0.77102        -0.43739
C         -2.55052        -1.46889        -0.29723
C         -1.26974        -0.73024        -0.10752
C          0.03637        -1.52814        -0.00910
C          1.19801        -0.79156        -0.72636
C          2.54087        -1.50260        -0.53981
C          3.80644        -0.72230        -0.37478
C          5.06163        -1.49764        -0.02257
C          6.16072        -0.78599         0.70674
C          7.44934        -1.56156         0.94994
C          8.76267        -0.80768         0.95265
C         10.02574        -1.52039         0.40930
C         10.50051        -0.75337        -0.83414
C         -9.87231        -2.64319         0.96510
C         -8.79202        -3.42608         0.72030
C         -7.46674        -2.68295         0.56272
C         -6.26529        -3.59716         0.28818
C         -5.01073        -2.94980        -0.22718
C         -3.74657        -3.67155         0.18496
C         -2.49263        -2.93300        -0.23514
C         -1.33257        -3.65374        -0.26323
C         -0.03753        -2.96864        -0.49485
C          1.25696        -3.70687        -0.35599
C          2.54334        -2.94478        -0.00863
C          3.78309        -3.73281        -0.50613
C          5.07020        -2.98511        -0.12540
C          6.13296        -3.75233         0.65351
C          7.43920        -2.98276         0.58754
C          8.60823        -3.64591         0.14451
C          9.81941        -2.97996         0.07986
C         -8.86161        -4.96548         0.78516
C         -7.65912        -5.77670         0.25756
C         -6.34885        -5.08564         0.18794
C         -5.15502        -5.76764        -0.43802
C         -3.83613        -5.06500        -0.47969
C         -2.53151        -5.81823        -0.79816
C         -1.37199        -5.16002        -0.02066
C         -0.04483        -5.84975        -0.33561
C          1.16174        -5.11799         0.21353
C          2.47677        -5.88859         0.15116
C          3.78135        -5.16164         0.02124
C          5.05352        -5.94252        -0.09383
C          6.32956        -5.17011         0.05978
C          7.53909        -5.86978         0.73146
C          8.37600        -5.08280        -0.30788
C         -7.68210        -7.12394         0.08951
C         -6.45604        -7.94617        -0.19317
C         -5.15387        -7.26197        -0.47110
C         -3.87473        -7.92984         0.03009
C         -2.56429        -7.30264        -0.42816
C         -1.39716        -8.00559        -0.27065
C         -0.06629        -7.34511        -0.48212
C          1.21735        -8.21246        -0.40072
C          2.54108        -7.33068        -0.36008
C          3.71504        -7.95522         0.38876
C          5.03428        -7.28641         0.15777
C          6.25521        -8.02445         0.49020
C          7.44922        -7.37296         0.66881
C         -6.33700        -9.32715         0.35846
C         -5.17917       -10.01447         0.34666
C         -3.89646        -9.44859        -0.23320
C         -2.61471       -10.04768         0.32687
C         -1.43200        -9.38221         0.25082
C         -0.18516       -10.04776         0.82207
C          1.15910        -9.37953         0.57199
C          2.30714       -10.01485         0.93463
C          3.64512        -9.35436         0.89170
C          4.93109       -10.08715         0.92354
C          6.11983        -9.46544         0.72545
O          1.46344         9.32078        -0.96772
O          0.87257        -4.92726         1.62900
H          1.74889        -4.75403         2.06373
O         -4.92517        -2.59496        -1.62573
O         -2.16186         8.78808        -1.28871
O         -9.86346         1.40258        -1.34955
O         -7.13484        -1.51883        -1.77658
O          5.61839        -2.18772        -1.20407
O          3.92208         0.91815         1.43857
O          7.16669        -5.00450        -1.16258
O          6.50443        -1.21130         2.03149
O         -2.88336         7.61003         1.81023
O         -2.17278         2.68238         1.22553
H         -2.17036         3.54974         1.70012
O          4.21446         8.38265        -1.37045
O         -5.89491        -7.84194        -1.56438
O         -1.79954         5.74151        -1.91637
O          3.23714        -5.50868         1.34163
O          4.16816         4.87082        -1.40336
H          4.16228         5.72626        -1.88335
O         11.07947        -1.44484         1.38080
H         11.22662        -0.48303         1.57110
O         -7.10543         2.21799         1.51050
H         -7.15243         2.97643         2.13247
O         -6.55891         4.53170        -1.35964
O        -10.06718        -5.42247         0.17446
H        -10.06196        -5.15381        -0.76693
O          1.23568        -8.96877        -1.58331
O          0.03784        -6.45328        -1.63354
O         -3.82284         4.54876        -1.40634
O          3.37101        -1.14951        -1.69591
O         -6.02031        -4.43380         1.44811
O         -2.72822         1.50501        -2.14994
H         -3.13934         0.67412        -2.46992
O          6.97631         1.10409        -0.73082
O          0.71728        -3.42363        -1.66159
O          1.36210         3.12165         1.12443
O         -3.69781        -3.75581         1.61169
H         -3.01300        -4.42870         1.85782
O          4.40430         6.59049         1.85536
O          8.95509         0.02530         2.13732
O         -6.94486         1.40409        -1.97519
O         -1.28281         0.25912         0.99671
O          2.95363        -7.20780        -1.72819
H          2.38618        -7.85670        -2.23434
O          4.05032         9.79625        -1.62847
H          3.05882         9.87612        -1.71177
O          6.39629         5.24425         2.49797
O         -4.70949        -5.10663        -1.65774
O         -9.03791        -0.62966         2.10482
H         -8.24077        -1.21482         2.29517
O          0.27957        -1.72296         1.40560
H          0.12277        -0.85167         1.84698
O         -0.68172         3.44641        -2.01142
O         -0.39197       -10.12534         2.24516
H          0.44513       -10.41256         2.66494
O          0.07600         1.20151        -2.29177
H         -0.71237         1.64413        -2.69336
O         -3.64756        10.07018         1.79454
H         -3.15645         9.43426         2.36434
O          7.84189        -5.49135         2.08629
H          7.62674        -6.24243         2.67791
O          8.70108         3.88991         2.79206
H          8.08491         4.65233         2.97485
O          2.71347         1.70110        -1.95060
H          1.84369         1.59030        -2.41416
O          5.68455        -3.83882         2.00944
H          6.39716        -4.27947         2.52833
O         -7.07084        -2.11733         1.79422
O         -2.07155         5.25226         1.68348
H         -2.45282         5.90050         2.32631
O          7.75172         7.63324        -1.01196
H          7.54138         8.58209        -1.13362
O          3.56875        -8.18585         1.82439
O          2.68413        -2.84652         1.41790
H          1.86361        -2.40373         1.76447
O         11.03186         1.39730         1.31619
H         10.64335         1.78307         2.13187
O         -3.92489        -7.71310         1.46785
H         -3.11145        -8.09644         1.86153
O         -3.81148         0.76684         1.34247
H         -2.91389         0.51891         1.67414
O          3.46562         3.95226         2.02565
H          3.34260         3.08906         2.47603
O          3.73095        -3.86847        -1.92349
H          4.05930        -3.02753        -2.31937
H         -1.58676         5.05810        -2.59180
O         -3.89559        -9.70862        -1.65258
H         -3.12043        -9.25368        -2.04464
O         -9.74394        -1.31474        -1.42631
H         -9.22201        -1.19530        -2.25031
O          0.88582        -0.94043        -2.10591
H          1.71767        -0.87370        -2.62532
O         -7.84217         5.29263         1.86992
H         -8.57058         5.81102         2.27233
O         -2.28440        -5.66680        -2.19702
H         -3.15994        -5.61264        -2.64612
O          1.16790         0.60843         1.18048
H          0.99119         1.49865         1.57041
O         -1.65753        -5.42031         1.38083
H         -0.84369        -5.17798         1.89335
O          7.76406         2.84000         2.46052
H          5.60253         5.72416         2.84681
O          0.04546         7.51874        -2.12658
H         -0.81270         7.20210        -2.49677
O        -10.51157         4.06126        -1.32558
H        -10.65756         3.10556        -1.50465
H         10.90831        -1.33142        -1.67726
H         10.91339         1.11362        -1.75014
H         10.55936         3.38598        -0.56295
H          9.36336         5.53242        -0.38340
H          8.32204         7.61870         1.00663
H          7.06033         9.88834         1.29843
H          4.84467        10.92397         1.80050
H          2.37024        10.75677         1.86054
H         -0.11141        11.17328         0.93677
H         -2.53571        10.86544        -0.74375
H         -5.06830        11.03887        -0.40094
H         -7.17452         9.81483        -0.21617
H         -8.42730         7.87445         0.36972
H         -9.23479         6.22259        -1.02856
H         -9.22907         3.31679         1.44830
H        -11.86874         1.67961         0.96243
H        -11.91878        -0.71870         1.44215
H        -10.86148        -3.10080         1.13053
H         -8.94455        -5.22644         1.87721
H         -8.63378        -7.66518         0.21602
H         -7.24174        -9.78550         0.78809
H         -5.15341       -11.03853         0.75179
H         -2.63322       -11.07984         0.71133
H         -0.13340       -11.10117         0.41260
H          2.24612       -10.97318         1.48009
H          4.90845       -11.17405         1.09685
H          7.04892       -10.05310         0.78477
H          8.32648        -7.94400         1.01510
H          9.24818        -5.55165        -0.81674
H         10.72248        -3.53767        -0.21418
