         404
 CSIRO Nanostructure Databank - Neutral Graphene Oxide Data Set
C          1.17192         3.64097        -1.32707
C         -0.04042         4.36113        -1.26285
C          1.05673         6.23747         0.00169
C         -0.12039         5.59814        -0.68108
C          1.09899         7.75844        -0.14328
C         -0.07507         8.51093        -0.30591
C          1.13521        10.61615        -0.02707
C         -0.05590         9.90122        -0.26397
C          1.14247        12.08920        -0.02600
C         -0.05243        12.83998        -0.13458
C          1.17851        14.95373        -0.06045
C         -0.03302        14.22488        -0.12753
C          1.20138        16.40496         0.02892
C         -0.00309        17.14759         0.15002
C          1.22437        19.24852         0.31619
C          0.00486        18.51723         0.29559
C          1.24288        20.66850         0.44723
C          0.04145        21.41597         0.77370
C          1.18325        23.50681         0.10815
C          0.01643        22.76407         0.71019
C          1.19927        24.97965         0.41643
C          0.00169        25.69790         0.36726
C          1.18048        27.79585         0.72830
C         -0.01615        27.07855         0.54406
C          1.18211        29.24177         0.83523
C         -0.01686        29.98275         0.93180
C          1.20900        32.07824         0.82439
C         -0.00778        31.36762         0.93906
C          1.23156        33.54278         0.69419
C          0.13374        34.34264         1.06283
C          1.23492        36.31944         0.17291
C          0.14114        35.71239         0.82011
C          1.23848        37.74126        -0.10871
C          3.59304         3.52465        -1.05388
C          2.38997         4.21006        -0.87115
C          3.55588         6.24654        -0.14245
C          2.37834         5.57609        -0.35553
C          3.56049         7.67113         0.26567
C          2.30677         8.45133         0.08549
C          3.60531        10.56933         0.39987
C          2.32517         9.86390         0.15527
C          3.60555        12.07493         0.30664
C          2.35531        12.80670         0.04159
C          3.66887        14.93478        -0.05933
C          2.39710        14.22664        -0.02008
C          3.68267        16.38682        -0.09382
C          2.43624        17.10331         0.03639
C          3.68956        19.24066         0.18582
C          2.45381        18.52939         0.16575
C          3.71149        20.66009         0.30015
C          2.47240        21.37764         0.37098
C          3.68584        23.51032         0.54991
C          2.48538        22.80379         0.40021
C          3.67164        24.94768         0.68661
C          2.42395        25.66315         0.62372
C          3.65719        27.79346         0.86640
C          2.41499        27.08372         0.75529
C          3.66389        29.21227         0.80411
C          2.42375        29.94168         0.79596
C          3.69081        32.15364         0.68191
C          2.41271        31.35893         0.75934
C          3.52767        33.29454        -0.32470
C          2.35980        34.15910         0.09950
C          3.47527        36.11892        -1.00039
C          2.35212        35.52566        -0.18315
C          3.56019        37.62262        -0.87022
C          2.34803        38.36059        -0.59519
C          6.13608         3.43454        -1.01215
C          4.86765         4.05351        -0.60450
C          6.09405         6.32819        -0.40226
C          4.85960         5.54300        -0.16181
C          6.12105         7.69713        -0.22974
C          4.90483         8.41541         0.23695
C          6.06403        10.60414        -0.34309
C          4.86734         9.86118         0.15977
C          6.06178        12.06732         0.02504
C          4.88600        12.77783         0.07699
C          6.14388        14.87747        -0.33240
C          4.86740        14.21190        -0.03908
C          6.14996        16.39670        -0.40803
C          4.88870        17.10882        -0.15520
C          6.14294        19.25545         0.00873
C          4.92519        18.53509         0.02650
C          6.18569        20.66390         0.24670
C          4.94332        21.37164         0.35514
C          6.15903        23.46845         0.77820
C          4.94251        22.78971         0.55550
C          6.11501        24.88726         1.19972
C          4.86964        25.65570         0.95778
C          6.12129        27.82887         1.25318
C          4.87514        27.06145         1.02418
C          6.12679        29.23135         0.83511
C          4.92355        29.91102         0.69764
C          6.06829        31.95788        -0.03422
C          4.92132        31.33186         0.41045
C          6.05162        33.33931        -0.44957
C          4.83009        34.05432        -0.48816
C          6.01691        36.11239        -1.04178
C          4.80370        35.41977        -0.79625
C          6.00245        37.55910        -1.18002
C          4.75085        38.26892        -1.05176
C          8.58561         3.52862        -1.23468
C          7.33078         4.14607        -1.02061
C          8.57960         6.39994        -0.99118
C          7.26992         5.62989        -0.94961
C          8.58594         7.79322        -0.53528
C          7.36079         8.45321        -0.33571
C          8.57776        10.54320         0.02540
C          7.36715         9.86879        -0.11556
C          8.60279        11.97869         0.37085
C          7.32973        12.76798         0.30620
C          8.59485        14.91043         0.13611
C          7.40953        14.22178         0.04335
C          8.62272        16.36577        -0.02885
C          7.43415        17.07309        -0.20689
C          8.70440        19.28584        -0.15733
C          7.39757        18.53859        -0.28972
C          8.68158        20.68392         0.31058
C          7.42055        21.37235         0.43466
C          8.63733        23.47437         1.00542
C          7.40334        22.77321         0.76239
C          8.67889        24.87454         1.17654
C          7.42442        25.62550         1.42337
C          8.73974        27.87139         1.18294
C          7.45249        27.13800         1.44820
C          8.71921        29.22373         0.82164
C          7.41665        30.01784         0.88271
C          8.55392        31.81915        -0.66834
C          7.32085        31.15871        -0.12289
C          8.46990        33.25802        -0.99417
C          7.27296        33.98455        -0.85954
C          8.46169        36.11032        -1.40684
C          7.23973        35.40434        -1.12164
C          8.44990        37.57191        -1.40318
C          7.18769        38.24947        -1.30125
C         11.06439         3.56054        -1.29335
C          9.82364         4.23931        -1.20372
C         11.05397         6.36466        -0.90343
C          9.84134         5.65338        -1.00874
C         11.06147         7.79324        -0.64552
C          9.83337         8.47707        -0.42681
C         11.06215        10.58825        -0.03561
C          9.83450         9.87401        -0.12189
C         11.06447        12.02503         0.18623
C          9.87016        12.71573         0.31408
C         11.12375        14.87365         0.42726
C          9.81774        14.17772         0.68890
C         11.09668        16.33951         0.49848
C          9.86342        17.08911         0.14896
C         11.13953        19.22425         0.21773
C          9.91453        18.48369         0.10118
C         11.14584        20.60939         0.39687
C          9.89377        21.30094         0.59240
C         11.17910        23.36224         1.32144
C          9.84924        22.61109         1.33080
C         11.16300        24.86347         1.38894
C          9.88916        25.61308         1.28961
C         11.18010        27.62817         1.73440
C          9.93491        27.03814         1.36447
C         11.13808        29.75576         1.10521
C          9.90367        30.03804         0.50264
C         11.05833        31.81977        -0.80956
C          9.87945        31.22524        -0.33697
C         11.00632        33.16284        -1.51403
C          9.67711        33.92914        -1.48258
C         10.90672        36.13487        -1.75793
C          9.65478        35.40747        -1.55793
C         10.91662        37.69280        -1.62236
C          9.61786        38.30995        -1.39430
C         13.54768         3.56821        -1.25352
C         12.28334         4.26480        -1.26523
C         13.51398         6.44165        -1.25467
C         12.27250         5.67491        -1.10092
C         13.53715         7.83863        -0.76186
C         12.29600         8.49743        -0.52447
C         13.53454        10.59219        -0.03212
C         12.29427         9.89792        -0.19473
C         13.53529        12.01468         0.20271
C         12.32894        12.72500         0.26927
C         13.59628        14.87013         0.34444
C         12.31736        14.17205         0.38425
C         13.63794        16.25024         0.19914
C         12.42112        17.05664         0.34054
C         13.67842        19.24173        -0.21556
C         12.39184        18.48957        -0.07183
C         13.67194        20.69453         0.11179
C         12.40605        21.36033         0.40859
C         13.60765        23.51912         0.61708
C         12.39791        22.70025         0.77720
C         13.61667        24.92029         1.08689
C         12.43927        25.59675         1.22858
C         13.68147        27.66410         1.71541
C         12.43410        26.99237         1.60513
C         13.63049        29.73112         1.02328
C         12.37024        30.24091         0.59274
C         13.53984        31.37112        -1.18310
C         12.32350        31.16766        -0.50148
C         13.52308        33.48145        -1.74254
C         12.22945        34.04230        -1.50406
C         13.32921        36.20876        -1.03244
C         12.15716        35.43064        -1.44862
C         13.35496        37.69089        -1.06319
C         12.14597        38.37190        -1.21627
C         15.94744         3.39132        -0.90825
C         14.77591         4.19393        -1.26046
C         16.04443         6.47251        -1.14398
C         14.82231         5.68298        -1.45708
C         16.01079         7.80537        -0.63947
C         14.75714         8.50350        -0.50377
C         16.00780        10.53782         0.19459
C         14.76169         9.88482        -0.11564
C         16.01429        11.96087         0.45451
C         14.80119        12.70015         0.36078
C         16.06370        14.80788         0.62880
C         14.82574        14.11542         0.41250
C         16.09970        16.22248         0.58966
C         14.93327        16.92923         0.06448
C         16.16738        19.17888         0.26986
C         14.97048        18.46828        -0.11169
C         16.17660        20.63461         0.12509
C         14.88251        21.34751         0.22946
C         16.20902        23.45650         0.75243
C         14.93715        22.80652         0.36667
C         16.18849        24.86290         1.20415
C         14.90208        25.60398         1.34679
C         16.10686        27.80338         1.00800
C         14.91766        27.08942         1.34156
C         16.08024        29.19025         0.56040
C         14.83324        29.91711         0.32900
C         16.02924        31.37501        -1.24069
C         14.79315        30.85323        -0.76104
C         16.01229        33.53885        -1.68033
C         14.72163        34.14076        -1.51276
C         15.91492        36.25187        -0.93100
C         14.66831        35.48535        -0.93754
C         15.85370        37.67505        -0.85067
C         14.59013        38.34947        -0.87378
C         18.51430         3.26305        -0.81516
C         17.22287         3.72532        -1.27895
C         18.49534         6.39160        -0.83920
C         17.28520         5.90466        -1.39001
C         18.48690         7.73279        -0.36065
C         17.23665         8.45284        -0.30523
C         18.46304        10.39407         0.67165
C         17.20957         9.79925         0.16751
C         18.48219        11.90080         0.97056
C         17.23197        12.65780         0.73321
C         18.51758        14.73924         1.23301
C         17.25441        14.04887         0.85682
C         18.53669        16.25561         1.32326
C         17.25573        16.98700         1.05426
C         18.63719        19.18650         0.88380
C         17.32082        18.49582         0.82808
C         18.67807        20.59294         0.78143
C         17.46744        21.35865         0.38443
C         18.65951        23.49547         0.96055
C         17.40748        22.79254         0.74890
C         18.65193        24.93171         0.96957
C         17.42177        25.64739         1.04299
C         18.59078        27.71720         0.61867
C         17.36122        27.05204         0.91934
C         18.52184        29.05933         0.03986
C         17.25866        29.79841         0.06217
C         18.45940        31.89599        -0.76714
C         17.25477        31.05425        -0.64261
C         18.41377        33.33083        -0.95469
C         17.17832        34.09310        -1.16861
C         18.33331        36.28071        -0.87143
C         17.14301        35.54522        -0.94748
C         18.30871        37.70997        -0.92740
C         17.07191        38.39320        -0.87770
C         19.60260         4.09299        -0.72192
C         20.84785         6.17625        -0.32764
C         19.64995         5.54821        -0.71912
C         20.89493         7.53849        -0.03101
C         19.72975         8.33228         0.00766
C         20.92441        10.43752         0.60506
C         19.75158         9.72279         0.42049
C         20.94065        11.83595         0.83070
C         19.78458        12.59775         0.91960
C         20.96630        14.79868         1.03473
C         19.80488        14.04351         1.02732
C         20.97210        16.22063         1.10246
C         19.81809        16.97851         1.17045
C         21.02599        19.17247         1.28304
C         19.82709        18.44456         1.11024
C         21.04688        20.56144         1.26516
C         19.87896        21.30978         1.00663
C         21.08651        23.52191         1.01666
C         19.87661        22.78034         0.98992
C         21.09308        24.90361         0.95233
C         19.88455        25.64590         0.90789
C         21.04183        27.86072         0.58299
C         19.83547        27.06724         0.69257
C         21.03741        29.16975         0.22192
C         19.81206        29.82050        -0.26955
C         20.87822        32.06176        -0.35989
C         19.71299        31.29287        -0.45369
C         20.81947        33.44300        -0.49896
C         19.60812        34.08272        -0.77137
C         20.75449        36.29683        -1.37994
C         19.64366        35.59313        -0.64404
C         20.70041        37.66626        -1.50337
C         19.53742        38.39627        -1.16564
O         10.21845        33.25384        -2.72422
O         11.33927        24.02788         2.62444
O          6.67818        25.07403         2.55114
O         17.33481         4.77780        -2.21192
O          7.72745        30.88715        -1.49123
O         17.04352        21.10118        -1.00588
O         13.53610        32.19777        -2.31211
O         15.56705        25.01432         2.55039
O          7.85027        12.31468         1.63181
O          4.29572         7.89528         1.50301
O         12.90975        18.83688        -1.39644
O         13.67341        28.97903         2.20743
O         15.19248        17.55606        -1.25264
O         16.93274        17.90901         2.16164
O         11.80574        16.89841         1.66710
O         14.09888         6.21734        -2.60278
O          7.75275         6.22509        -2.20589
O         18.35579        10.91706         2.04274
O          3.59307        11.41626         1.63564
O         11.14505        28.93510         2.24552
O         11.00506        36.99667        -2.92984
O          6.74328        27.67264         2.61506
O         14.21703        23.47349        -0.73110
O         16.04431        32.27869        -2.30714
O          8.10217        19.07144        -1.47748
O         13.83857        35.66114         0.25420
O          4.93340         4.48605         0.81991
O         18.44640        15.43114         2.53051
O          6.14991        15.56179        -1.62748
O         19.13012        29.07514        -1.31625
O          3.90449        32.79544         1.97512
H          4.10302        32.09579         2.63213
O          0.86739         6.00043         1.43841
H          1.66830         6.32739         1.90215
O         19.95923        35.80827         0.79423
H         19.94697        36.77842         0.94440
O          3.11355        35.83249        -2.40386
H          3.76004        36.30216        -2.97343
O          5.92549        10.60597        -1.83547
H          6.76286        10.94913        -2.21549
O          7.45053        30.65892         2.20061
H          7.38411        29.93627         2.86527
O          3.21035        32.72852        -1.61940
H          3.04988        33.48099        -2.23160
O          9.66535        14.23313         2.14961
H          8.95571        13.58075         2.37996
O          9.59991        22.19924         2.71347
H          9.93436        22.93181         3.28462
O          1.00556        23.42177        -1.35498
H          1.00937        22.46931        -1.59088
H          1.18394         2.63004        -1.75761
H         -0.94783         3.90338        -1.68358
H         -1.10184         6.08485        -0.60205
H         -1.03858         8.00899        -0.46265
H         -1.00282        10.43634        -0.41276
H         -1.02493        12.33354        -0.18970
H         -0.99270        14.75549        -0.18074
H         -0.97061        16.62910         0.14117
H         -0.95295        19.04669         0.38420
H         -0.84253        20.87227         1.13585
H         -0.89366        23.31094         0.99455
H         -0.94342        25.17568         0.16599
H         -0.97853        27.60401         0.49431
H         -0.98198        29.46317         0.99752
H         -0.96070        31.91147         0.99464
H         -0.74030        33.88806         1.54971
H         -0.72192        36.32742         1.11328
H          0.33759        38.32369         0.13373
H          3.59369         2.59104        -1.63634
H          2.36591        39.45376        -0.72078
H          6.13855         2.36032        -1.25038
H          4.78384        39.36940        -1.02636
H          8.61586         2.43500        -1.35093
H          7.17916        39.34889        -1.33554
H         11.07444         2.46617        -1.40375
H          9.57371        39.39110        -1.19376
H         13.51599         2.47252        -1.15201
H         12.10727        39.45750        -1.04190
H         15.77868         2.49943        -0.28587
H         14.59354        39.44968        -0.85698
H         18.63472         2.20465        -0.53659
H         17.05743        39.49252        -0.90733
H         20.55256         3.61863        -0.42334
H         21.76407         5.57524        -0.23196
H         21.86079         7.97659         0.25512
H         21.89416         9.93604         0.48120
H         21.92153        12.32973         0.86620
H         21.94055        14.30001         0.93628
H         21.94978        16.71728         1.03009
H         21.96486        18.63834         1.48159
H         21.99980        21.07296         1.45625
H         22.04946        22.99402         1.03915
H         22.05900        25.42558         0.92222
H         21.99564        27.40134         0.87837
H         21.97396        29.74055         0.28206
H         21.84469        31.58925        -0.14449
H         21.72963        34.03974        -0.35258
H         21.66953        35.75224        -1.65338
H         21.57024        38.21253        -1.89794
H         19.53569        39.49217        -1.24765
