         621
 CSIRO Nanostructure Databank - Neutral Graphene Oxide Data Set
C          5.92844        31.70025        -0.21994
C          5.96168        33.05661        -0.11931
C          8.25773        27.44486        -0.82919
C          8.26376        28.82061        -0.97060
C          7.09995        29.58645        -0.61028
C          8.20205        31.69797        -1.35083
C          7.07014        30.95338        -0.68390
C          8.30386        33.14522        -0.93949
C          7.16405        33.80899        -0.42856
C          8.37496        35.92825        -0.46681
C          7.22140        35.18646        -0.15852
C          8.44590        37.33208        -0.15906
C         10.72904        23.18270        -0.41407
C         10.71958        24.56724        -0.72444
C          9.48836        25.32899        -0.69499
C         10.53864        27.30816        -1.86248
C          9.42598        26.65034        -1.06886
C         10.66232        28.79153        -1.51368
C          9.51551        29.52854        -1.26286
C         10.70044        31.70388        -1.43856
C          9.53043        30.97687        -1.26349
C         10.72690        33.15323        -1.53856
C          9.48983        33.86741        -1.22021
C         10.63771        36.05446        -1.54544
C          9.49849        35.27014        -1.03440
C         10.70019        37.57410        -1.28808
C          9.58399        38.07843        -0.38216
C         10.90603        40.05703         0.19347
C          9.66951        39.42372         0.07331
C         10.97770        41.40440         0.60418
C         13.20162        18.90003        -0.03557
C         13.17053        20.27888        -0.28658
C         11.94455        21.00657        -0.31756
C         13.19807        23.12309        -0.48465
C         11.90899        22.40606        -0.43315
C         13.19605        24.60897        -0.84442
C         11.90518        25.22883        -1.12076
C         13.19003        27.29627        -1.91459
C         11.86462        26.53358        -1.78306
C         13.15823        28.74748        -1.95368
C         11.96016        29.46350        -1.53555
C         13.19164        31.74873        -1.86769
C         11.99325        31.00599        -1.45317
C         13.20009        33.13955        -1.88799
C         11.93458        33.83818        -1.72062
C         13.19078        36.08531        -2.00055
C         11.90102        35.30619        -1.89875
C         13.23082        37.41448        -1.30935
C         12.09926        38.01487        -0.83526
C         13.39799        40.03533        -0.12727
C         12.15534        39.18929         0.15314
C         13.44431        41.44639         0.39419
C         12.17578        42.10914         0.85380
C         13.17906        44.18640         1.77570
C         12.07986        43.46877         1.23620
C         13.52386        45.53241         1.76417
C         15.67367        14.71528         0.79389
C         15.66560        16.09689         0.62383
C         14.44754        16.81543         0.39272
C         15.68140        18.90191        -0.06127
C         14.42658        18.18429         0.10271
C         15.68188        20.25279        -0.49849
C         14.42320        20.97619        -0.55562
C         15.62578        23.05755        -1.18126
C         14.42151        22.34631        -0.73273
C         15.65109        24.53298        -1.14233
C         14.47711        25.26207        -1.21952
C         15.66113        27.39087        -1.62938
C         14.47425        26.66628        -1.53579
C         15.68780        28.79023        -1.97697
C         14.40748        29.47415        -2.18739
C         15.69929        31.71176        -2.01962
C         14.41746        31.01472        -2.20144
C         15.68776        33.15781        -1.98198
C         14.46767        33.84171        -2.04750
C         15.79393        36.01710        -2.00090
C         14.49044        35.31942        -2.15300
C         15.72416        37.52685        -1.95050
C         14.59098        37.95932        -1.01592
C         15.89344        40.13389        -0.60668
C         14.68482        39.31926        -0.37736
C         15.94290        41.45798        -0.11807
C         14.80489        42.00042         0.57063
C         16.12784        43.97587         1.24184
C         15.02815        43.09294         1.38821
C         16.06248        45.29764         1.78635
C         14.85410        46.02161         2.03821
C         16.08305        48.14788         2.48744
C         14.91709        47.42733         2.36348
C         16.10089        49.55693         2.83727
C         18.31475        10.44785         1.14003
C         18.23371        11.85182         0.96937
C         17.00762        12.50873         0.89190
C         18.18787        14.76110         1.12637
C         16.89979        13.96506         1.06865
C         18.11184        16.21023         0.87423
C         16.91510        16.85645         0.64319
C         18.11877        18.96994         0.08037
C         16.90361        18.25867         0.25080
C         18.13018        20.25631        -0.48192
C         16.91526        20.91290        -0.75015
C         18.21188        23.08653        -1.21224
C         16.93990        22.30685        -1.24133
C         18.22335        24.45393        -1.23334
C         16.94811        25.20859        -1.07918
C         18.18801        27.31908        -1.75305
C         16.92257        26.70905        -1.28966
C         18.15843        28.79975        -2.04236
C         16.87416        29.53943        -1.99420
C         18.15527        31.72207        -1.66519
C         16.88277        30.97458        -1.99934
C         18.16246        33.17955        -2.08828
C         16.97289        33.87069        -2.06256
C         18.27227        36.04076        -2.14166
C         16.98657        35.33472        -2.08780
C         18.25534        37.48659        -1.93549
C         17.04450        38.17538        -1.61645
C         18.25756        40.30472        -1.19858
C         17.06035        39.51809        -1.13880
C         18.34005        41.62292        -0.72548
C         17.17729        42.20231        -0.10621
C         18.47842        44.24579         0.48203
C         17.25058        43.47787         0.50978
C         18.54445        45.43960         1.19553
C         17.37003        45.97224         1.92779
C         18.55194        48.27653         1.98011
C         17.37158        47.44240         2.33940
C         18.48238        49.74475         2.28037
C         17.24164        50.30844         2.84977
C         18.52079        52.52612         3.10976
C         17.26720        51.71679         3.41511
C         18.51421        53.88970         3.39831
C         20.76408         6.24003         2.42384
C         20.62750         7.70654         2.36654
C         19.51790         8.38251         1.70263
C         20.74955        10.52968         1.68381
C         19.50928         9.77118         1.52527
C         20.80079        11.93182         1.19792
C         19.51467        12.60595         0.82349
C         20.70439        14.85494         1.16092
C         19.47857        14.11810         0.64440
C         20.66497        16.24619         1.10545
C         19.37448        16.95345         0.98173
C         20.67994        19.01742         0.20604
C         19.38459        18.40119         0.57046
C         20.68953        20.23013        -0.43868
C         19.42823        20.87195        -0.86572
C         20.77959        23.07233        -1.22252
C         19.48249        22.33139        -1.26119
C         20.73742        24.48153        -1.42725
C         19.48524        25.19592        -1.36636
C         20.67062        27.36808        -1.73234
C         19.44440        26.58700        -1.47244
C         20.60826        28.82854        -1.44049
C         19.40616        29.56109        -1.87779
C         20.67885        31.61182        -1.87646
C         19.41183        30.92312        -1.90400
C         20.69141        32.95657        -2.49292
C         19.43855        33.85744        -2.48722
C         20.71516        36.13980        -2.41108
C         19.47909        35.37030        -2.40963
C         20.71037        37.57552        -2.15954
C         19.44824        38.22973        -2.01562
C         20.64771        40.51618        -2.02788
C         19.39106        39.70006        -1.89937
C         20.74170        41.83188        -1.36460
C         19.58710        42.38397        -0.77968
C         20.86021        44.42160        -0.20113
C         19.64930        43.68928        -0.17197
C         20.93993        45.71756         0.41423
C         19.82709        46.16222         1.26717
C         20.99241        48.47068         1.34700
C         19.87534        47.60699         1.77531
C         21.02326        49.84936         1.89709
C         19.77446        50.46558         2.47854
C         20.91510        52.68249         2.52558
C         19.72930        51.92176         2.68915
C         20.87693        54.06781         2.78308
C         19.68441        54.67914         3.25709
C         20.86663        56.79766         3.75579
C         19.70595        56.02841         3.74334
C         20.98183        57.94126         4.59294
C         23.32301         3.56398         3.06553
C         22.08388         4.18554         2.79947
C         23.23867         6.37097         2.64397
C         21.97099         5.59262         2.67455
C         23.18432         7.84296         2.89238
C         21.88513         8.55354         2.60844
C         23.21448        10.63976         1.95879
C         21.91385         9.92576         2.08069
C         23.18658        12.11849         1.92084
C         21.99523        12.75446         1.53795
C         23.10821        14.92073         1.76023
C         21.93876        14.17151         1.47299
C         23.05232        16.42765         1.84689
C         21.84768        17.03928         1.18669
C         23.13971        19.02574         0.54213
C         21.88980        18.34930         0.66426
C         23.23657        20.25600        -0.25752
C         21.95015        20.89983        -0.82541
C         23.33942        22.93497        -1.43696
C         21.97208        22.34627        -1.10846
C         23.32567        24.47313        -1.60074
C         22.00908        25.19319        -1.73124
C         23.28420        27.52106        -1.77526
C         21.99074        26.69656        -1.83661
C         23.17333        28.79679        -0.88344
C         21.85930        29.58266        -1.07457
C         23.09186        31.80675        -1.30432
C         21.84746        31.01633        -1.45644
C         23.14131        33.14423        -1.93584
C         22.04533        33.50622        -2.64950
C         23.23105        36.19341        -2.34514
C         21.98922        35.64795        -2.75269
C         23.20245        37.60502        -1.81322
C         21.91292        38.29985        -2.16163
C         23.18367        40.51825        -2.34680
C         21.90262        39.76056        -2.33769
C         23.17722        41.92279        -1.87352
C         22.00975        42.52960        -1.37795
C         23.22714        44.62078        -0.79753
C         22.04169        43.87618        -0.82155
C         23.26821        45.97544        -0.30731
C         22.05956        46.54392         0.24542
C         23.16775        48.82989         0.22372
C         22.05784        47.93317         0.66348
C         23.24453        50.23867         0.75481
C         22.13916        50.75492         1.58694
C         23.35300        52.87114         1.85450
C         22.13005        52.07622         1.98241
C         23.35753        54.23803         2.22558
C         22.05705        54.90383         2.49382
C         23.31979        57.10393         3.05921
C         22.02786        56.34475         2.95401
C         23.39596        58.27199         4.01306
C         22.19221        58.61081         4.81939
C         23.57134        60.15063         6.13985
C         22.31866        59.59304         5.82031
C         24.51701         4.25271         3.14647
C         25.78454         6.49335         3.11399
C         24.58432         5.67990         2.82817
C         25.78041         7.87215         2.99048
C         24.47228         8.58360         2.90057
C         25.65585        10.80210         2.73917
C         24.49329         9.97534         2.36619
C         25.56781        12.17718         2.67435
C         24.35685        12.85752         2.24430
C         25.51703        15.07984         2.29376
C         24.31445        14.28080         2.12918
C         25.55789        16.40175         1.84085
C         24.35497        17.08210         1.47379
C         25.59817        19.09499         0.77031
C         24.34068        18.40557         0.98870
C         25.65080        20.44389         0.33999
C         24.44418        21.11153        -0.12293
C         25.78156        23.14888        -0.69531
C         24.46917        22.40338        -0.57133
C         25.60738        24.65244        -0.61677
C         24.52047        25.28195        -1.18953
C         25.64672        27.48258        -1.07261
C         24.49755        26.72935        -1.29195
C         25.61661        28.94479        -1.21620
C         24.43680        29.62259        -1.13093
C         25.65586        31.86116        -1.45961
C         24.41117        31.10208        -1.14337
C         25.64878        33.25222        -1.67973
C         24.34663        34.02145        -1.62146
C         25.66550        36.13627        -2.00115
C         24.40793        35.44220        -2.18382
C         25.68775        37.59627        -2.10882
C         24.49616        38.31039        -2.15605
C         25.81762        40.51984        -2.30143
C         24.47081        39.74096        -2.45065
C         25.74024        41.90914        -1.91144
C         24.45622        42.64464        -1.93182
C         25.74069        44.63986        -0.92817
C         24.44938        44.07281        -1.40448
C         25.74281        46.06172        -0.45387
C         24.44880        46.72913        -0.34767
C         25.75538        48.95449        -0.15453
C         24.43625        48.19489        -0.25739
C         25.72677        50.30624         0.45911
C         24.55853        50.91722         0.87470
C         25.80178        52.96082         1.57740
C         24.56305        52.25427         1.43268
C         25.80278        54.30774         2.06152
C         24.57151        54.96820         2.29267
C         25.92988        57.02912         3.09043
C         24.57898        56.41699         2.60493
C         25.88673        58.14332         4.04437
C         24.72380        58.70770         4.51831
C         24.74128        59.71262         5.53988
C         26.92581         8.69826         3.17326
C         28.02043        10.88743         3.43571
C         26.87628        10.11520         3.14630
C         27.99595        12.31124         3.45842
C         26.68981        12.98033         3.21449
C         27.94730        15.25378         3.18083
C         26.66525        14.48056         3.00892
C         28.09393        16.57162         2.45094
C         26.84432        17.16193         1.80820
C         27.97179        19.04006         0.55802
C         26.80324        18.37981         0.93771
C         28.09462        20.43550         0.53299
C         26.88408        21.14755         0.37376
C         28.05344        23.27713         0.42937
C         26.91208        22.57620         0.14691
C         28.02141        24.75919         0.33106
C         26.74533        25.45885        -0.14257
C         28.05176        27.54303        -0.45124
C         26.85252        26.85495        -0.59710
C         28.13855        28.96784        -0.87413
C         26.89700        29.68150        -1.31887
C         28.09766        31.88275        -1.38259
C         26.88770        31.16888        -1.36849
C         28.11915        33.28625        -1.59270
C         26.87107        33.97927        -1.74829
C         28.14222        36.13445        -1.47894
C         26.85890        35.41539        -1.83721
C         28.17578        37.58493        -1.86459
C         26.97047        38.30224        -2.05268
C         28.22248        40.41271        -1.72756
C         27.00834        39.71563        -2.02495
C         28.20354        41.79892        -1.49169
C         26.91902        42.50858        -1.18706
C         28.24195        44.69006        -0.91868
C         27.00570        44.02689        -1.47961
C         28.23540        46.07096        -0.54400
C         27.01693        46.80917        -0.41965
C         28.27422        48.80933         0.17184
C         27.03365        48.17907        -0.14424
C         28.31701        50.27419         0.39964
C         27.00521        51.03218         0.56318
C         28.28369        52.92377         1.59121
C         27.02650        52.32363         1.25685
C         28.27482        54.20683         2.18518
C         27.07290        54.92988         2.39167
C         27.10022        56.16856         3.04792
C         29.14777        13.05115         3.68618
C         30.50776        15.21496         3.55088
C         29.21177        14.51662         3.62668
C         30.60751        16.52347         3.03930
C         29.50430        17.03490         2.26621
C         30.82485        19.04429         1.67859
C         29.81687        18.11667         1.43777
C         30.77295        20.41790         1.00804
C         29.35418        21.10458         0.98744
C         30.54690        23.40886         1.07269
C         29.26268        22.61736         1.01105
C         30.53474        24.81904         0.58374
C         29.27155        25.49949         0.19312
C         30.54404        27.59728        -0.02586
C         29.25903        26.84859        -0.09694
C         30.57991        29.07959        -0.15109
C         29.29746        29.81288        -0.42555
C         30.61598        31.91402        -1.13200
C         29.33334        31.24274        -0.87116
C         30.63188        33.24022        -1.57848
C         29.38453        33.97764        -1.66853
C         30.64499        36.06940        -1.95950
C         29.42117        35.38354        -1.79681
C         30.67896        37.51612        -1.95823
C         29.42633        38.26218        -1.80521
C         30.71074        40.39313        -1.55922
C         29.44420        39.66057        -1.68682
C         30.66473        41.84891        -1.59487
C         29.44996        42.48172        -1.00044
C         30.67344        44.68732        -0.84306
C         29.44183        43.99421        -0.99950
C         30.70836        46.03597        -0.47162
C         29.46838        46.72165        -0.24239
C         30.75786        48.62602         0.75521
C         29.46146        48.07458         0.19744
C         30.70206        50.09476         1.06425
C         29.54969        50.85776         0.98735
C         29.50013        52.20258         1.44264
C         31.82586        17.28375         3.04587
C         33.15112        19.31811         2.37346
C         31.92850        18.57037         2.46182
C         33.15897        20.61624         1.83116
C         31.81392        21.31484         1.75091
C         33.04612        23.37058         0.94778
C         31.86229        22.70279         1.14648
C         33.09212        24.73294         0.40474
C         31.80659        25.37377         0.03320
C         33.06947        27.55220        -0.43926
C         31.79453        26.82393        -0.29736
C         33.05995        28.88773        -0.68429
C         31.88307        29.76470        -0.45277
C         33.09217        31.79897        -1.49699
C         31.88206        31.20051        -0.91181
C         33.09687        33.13705        -1.86415
C         31.88151        33.90727        -1.84461
C         33.10653        36.01415        -2.26205
C         31.89723        35.33118        -2.05751
C         33.11191        37.46935        -2.50577
C         31.86376        38.20100        -2.21426
C         33.16643        40.44560        -2.43188
C         31.98158        39.64532        -1.95210
C         33.15308        41.91767        -2.14969
C         31.86395        42.62145        -1.82709
C         33.21132        44.68627        -1.07169
C         31.90346        44.06797        -1.37761
C         33.16743        46.05968        -0.62203
C         31.98479        46.72727        -0.39052
C         31.96539        48.22324        -0.13109
C         34.33525        21.31730         1.55735
C         35.51414        23.40097         1.01330
C         34.33659        22.69564         1.16002
C         35.52602        24.89883         0.87711
C         34.26033        25.42195         0.24046
C         35.58857        27.51517        -0.34216
C         34.32650        26.70081        -0.58482
C         35.54527        28.86449        -0.67977
C         34.30055        29.52287        -1.17852
C         35.63669        31.67637        -1.67048
C         34.31272        30.96756        -1.59141
C         35.65023        33.15536        -1.76574
C         34.38613        33.78979        -2.23083
C         35.66679        36.00236        -2.11283
C         34.39294        35.29437        -2.39689
C         35.70784        37.46294        -2.31516
C         34.42749        38.21426        -2.58607
C         35.58403        40.36223        -1.67875
C         34.54825        39.75543        -2.61041
C         35.49992        41.77932        -1.38702
C         34.40374        42.56933        -1.65975
C         34.37221        43.95586        -1.23932
C         36.77798        25.47578         0.27631
C         38.13337        27.42337        -0.40707
C         36.84365        26.81036        -0.10172
C         38.40259        28.77583        -0.19455
C         36.62716        29.73168        -0.39345
C         38.07764        31.75864        -0.76710
C         36.85659        30.99478        -1.06582
C         37.92032        33.25521        -0.65575
C         36.77400        33.87998        -1.45794
C         37.97728        36.07231        -1.22380
C         36.78829        35.32769        -1.64640
C         37.94947        37.44009        -1.10167
C         36.87348        38.23215        -1.69758
C         36.67284        39.63702        -1.29483
C         39.44170        29.65951        -0.59047
C         40.50499        31.90526        -0.53883
C         39.29591        31.09066        -0.58433
C         40.46566        33.26149        -0.63329
C         39.22772        33.99181        -0.79287
C         39.19909        35.34974        -0.92139
O         23.72751         8.35488         4.15524
O         12.56128        26.56733        -3.07761
O         32.99480        41.39182        -3.51944
O         10.93965        35.70409        -2.92928
O         20.93690         8.35662         3.68057
O         18.16340        27.80705        -3.13875
O         36.78791        37.96048        -3.15192
O         21.72777        56.00390         1.56532
O         19.70690        40.44367        -3.14558
O         24.39905        43.84624        -2.84948
O         25.36891        57.23861         1.73591
O         19.29297        18.03754         1.98828
O         25.22424        40.14941        -3.60166
O         30.54029        24.54068         2.02575
O         22.45647        40.27726        -3.61539
O         34.44719        34.37993        -3.56057
O         17.64590        46.41102         3.31777
O         20.90054        29.19573        -0.03869
O         17.01028        26.16929         0.05669
O         21.24606        27.06880        -3.05553
O         23.20137        58.46918         2.57026
O         14.93780        38.09046         0.38840
O         18.29013        49.23135         0.90363
O         26.23952        13.87727         4.27967
O         36.55992        30.98169        -2.52800
O         32.16710        30.81179         0.54145
O         31.65331        25.80219        -1.36772
O         31.68250        43.74726        -2.79494
O         10.60628        38.27012        -2.48423
O         33.76937        37.78544        -3.82271
O         20.72116        49.79048         3.36443
O         34.22258        29.87405        -2.59452
O         13.31174        24.13919         0.56491
O         14.11787        43.34603         2.41045
O         27.06070        25.32127         1.29149
O         12.27372        38.52336         1.36392
O         20.23058        46.51979         2.65067
O         30.62468        28.43799         1.17047
O         37.42669        29.43615         0.67284
O         27.27654        17.58546         3.16474
O         12.24228        30.19504        -0.24765
O         27.84899        29.12447        -2.30760
O         31.68456        39.90548        -0.53433
O         24.11615        10.04104         0.94358
O         19.46704        21.27319        -2.28154
O         29.08538        18.27352         0.25989
O         22.81928        20.06868        -1.65308
O         27.77437        51.03889        -0.71291
O         25.78509        44.88238         0.49086
O         25.02763        48.84976        -1.42541
O         13.76613        35.91657        -3.33005
O         14.33403        30.24837        -3.45330
O         16.15871        22.52772        -2.46237
O         20.37833        12.02104        -0.21933
O         17.60797        14.33596         2.37130
O         23.69440        31.67805         0.04104
O         22.77621        24.74192        -2.93300
O         22.76184        49.95116        -0.61728
O         13.23588        41.11457        -1.06279
O         29.04236        30.83884         0.56930
O         28.33251        15.29308         4.56596
O         24.03341         6.02777         1.47813
O         29.01167        21.82884         2.22375
O         22.10611        34.53567        -3.58372
O         19.89749        33.15839        -3.70516
O          7.85345        31.71927        -2.78048
H          8.50606        32.29000        -3.23981
O         23.16622        37.45437        -0.34340
H         23.66424        36.63612        -0.10909
O         15.39484        38.03056        -3.27442
H         14.71567        37.42214        -3.66546
O         22.86864        16.72364         3.28939
H         23.66662        16.39754         3.76021
O         24.15858        34.34093        -0.18452
H         24.07916        33.46765         0.28308
O         23.21160        28.32726         0.47662
H         22.91756        29.05531         1.06424
O         10.09443        27.25637        -3.24487
H         10.90443        27.15311        -3.79917
O         23.57597        27.99453        -3.10441
H         23.21711        27.34597        -3.74856
O         34.39126        26.27374        -1.97549
H         33.49426        25.93100        -2.20599
O         31.00136        47.93787         2.02263
H         30.26916        48.15740         2.63561
O         26.25132        22.90866        -2.06833
H         25.45026        22.69923        -2.62078
O         31.91256        48.90832        -1.38465
H         31.15232        48.56859        -1.90040
O         18.15062        31.81094        -0.18193
H         17.31834        32.25519         0.08896
O         26.70716        42.38160         0.27835
H         26.59977        41.42763         0.48108
O         16.09771        52.43586         3.01273
H         16.11443        52.53267         2.03855
O         35.50700        25.42935         2.26386
H         34.77137        24.98581         2.73944
O         35.03838        40.07949        -3.91834
H         34.55259        39.52141        -4.56501
O         31.42906        21.45278         3.13451
H         30.51728        21.83523         3.17600
O         27.07607        44.22247        -2.90247
H         26.18363        44.03117        -3.28720
O         37.48076        33.48455         0.74240
H         38.21884        33.21129         1.32873
O         29.51183        42.17410         0.45986
H         28.62509        42.41785         0.82487
O         19.45745        14.36827        -0.79244
H         20.04033        13.68599        -1.20212
O         28.11353        36.18133         0.00262
H         28.10683        35.25350         0.32441
O         31.19162        20.29841        -0.36462
H         30.68116        19.56537        -0.77268
O         23.67998        22.41225        -2.76676
H         23.12873        22.92247        -3.40849
H          5.03413        31.14170         0.09451
H          5.08843        33.60941         0.25589
H          7.35342        26.94700        -0.44635
H          6.22702        29.04419        -0.21402
H          6.34727        35.69545         0.27300
H          7.60139        37.78317         0.38652
H          9.76453        22.68103        -0.24449
H          8.59977        24.85273        -0.25278
H          8.74901        39.95255         0.37451
H         10.02803        41.94037         0.76965
H         12.25468        18.36101         0.11956
H         11.00023        20.45283        -0.20337
H         11.10371        43.96745         1.12638
H         12.76015        46.27956         1.49977
H         14.74043        14.15087         0.64503
H         13.49477        16.26883         0.46120
H         13.95924        47.95532         2.48687
H         15.15578        50.01207         3.17099
H         17.37916         9.86835         1.12004
H         16.08174        11.91269         0.87886
H         17.20449        51.62908         4.53722
H         17.59051        54.35541         3.77088
H         19.86153         5.63310         2.25317
H         18.64989         7.78976         1.37841
H         18.80949        56.40696         4.25709
H         20.10358        58.23195         5.18961
H         23.32545         2.48172         3.26051
H         21.17144         3.57370         2.76915
H         23.62507        60.91839         6.92438
H         21.42711        59.89868         6.38617
H         25.43006         3.74000         3.48120
H         26.72286         5.96726         3.34717
H         26.84369        58.44843         4.49581
H         25.71055        60.12231         5.85793
H         27.89175         8.21555         3.38604
H         28.96368        10.37453         3.67587
H         29.22903        54.67031         2.47509
H         28.03432        56.51469         3.51498
H         30.09935        12.51140         3.80917
H         31.39664        14.72085         3.96993
H         31.60928        50.54705         1.49407
H         30.43038        52.67116         1.79623
H         32.69734        16.86768         3.57193
H         34.09804        18.83600         2.66065
H         34.12163        46.59762        -0.51137
H         32.90830        48.53910         0.37951
H         35.30508        20.81421         1.69428
H         36.47296        22.89099         1.19487
H         36.37518        42.24001        -0.90213
H         35.33406        44.41998        -0.97062
H         37.71183        24.90259         0.38274
H         38.92846        26.76990        -0.79199
H         38.79870        37.96701        -0.64125
H         37.45460        40.10651        -0.67757
H         40.42444        29.24094        -0.85225
H         41.47088        31.39027        -0.43669
H         41.40181        33.84001        -0.62502
H         40.13563        35.92656        -0.87392
