         252
 CSIRO Nanostructure Databank - Neutral Graphene Oxide Data Set
C         30.62273        31.69350         1.80433
C         30.78884        32.88411         2.16175
C         31.03715        36.12586         2.66653
C         31.00518        37.36985         2.70162
C         31.32770        40.66463         2.92228
C         31.37067        41.94308         2.78665
C         32.56639        29.18797        -0.25557
C         31.65341        29.69794         0.45136
C         32.84864        31.65867         0.90826
C         31.60218        30.92933         1.11832
C         32.90609        33.07093         1.18183
C         31.82484        33.79098         1.81700
C         32.83411        35.93623         1.19851
C         31.87051        35.20029         1.95583
C         32.77215        37.42439         1.04985
C         31.71728        38.26739         1.78563
C         33.17842        40.41306         1.36013
C         31.92562        39.80980         1.86791
C         33.58400        41.83082         1.75218
C         32.33685        42.70539         2.14660
C         33.37293        44.53690         0.89866
C         32.52515        44.00039         1.67366
C         35.36122        27.32986         0.78108
C         35.45874        28.72444         1.32390
C         33.83805        29.80178        -0.42779
C         35.29990        31.66577         0.48632
C         33.98761        31.02640         0.28406
C         35.29876        33.08838         0.60407
C         34.06391        33.80593         0.74440
C         34.91161        36.01410        -0.07845
C         33.89940        35.23977         0.59235
C         35.21446        37.32009         0.22902
C         34.06970        38.12668         0.66296
C         35.45934        40.12006         0.29648
C         34.38584        39.50741         1.18719
C         35.09558        41.44260        -0.30194
C         34.44023        42.43771         0.63637
C         35.60528        44.37046        -0.47964
C         34.43057        43.78327         0.27813
C         35.53856        45.64556        -1.29176
C         37.49907        27.36280        -0.53372
C         36.30418        26.82302         0.16003
C         37.63674        28.80205         0.00682
C         36.56139        29.46717         0.55860
C         37.83391        31.55761         0.71388
C         36.50450        30.91717         0.56928
C         37.89428        33.05083         0.91216
C         36.59907        33.83887         0.86085
C         37.87914        35.79322        -0.01768
C         36.81551        34.95897        -0.10870
C         37.74482        37.20748        -0.48555
C         36.61408        37.94322         0.23193
C         37.65446        40.02033        -0.89365
C         36.54633        39.40953        -0.12516
C         37.32014        41.20941        -1.54474
C         36.20297        42.00811        -1.14023
C         38.07323        44.50523        -2.52792
C         36.22874        43.35147        -1.42965
C         37.79899        45.90301        -2.49042
C         36.51761        46.12053        -1.88033
C         39.99421        24.64878        -1.22525
C         38.94040        25.26123        -0.99051
C         40.14309        27.21955        -0.17809
C         38.75782        26.55226        -0.33467
C         40.20611        28.71378        -0.19495
C         38.91195        29.51830        -0.42619
C         40.23474        31.57820         0.14297
C         39.03983        30.89273         0.20188
C         40.29105        33.01091         0.33356
C         39.15015        33.74771         0.56887
C         40.29516        35.90516         0.10781
C         39.14868        35.19802         0.33042
C         40.28010        37.39861        -0.11675
C         39.00645        37.98078        -0.70376
C         40.22498        40.15723        -1.17014
C         38.97918        39.45785        -0.92780
C         40.31917        41.62075        -1.49297
C         39.27286        42.36226        -2.06354
C         40.56083        44.45120        -2.12241
C         39.29801        43.78463        -2.31649
C         40.74525        45.80407        -2.53161
C         38.80544        46.83554        -2.78874
C         40.32259        48.55150        -2.15333
C         39.14846        48.09349        -2.26147
C         42.60143        24.69441        -1.56002
C         41.31917        25.19466        -1.16643
C         42.67808        27.14288        -0.32649
C         41.37499        26.47077        -0.57976
C         42.68809        28.62281        -0.03304
C         41.40060        29.36922        -0.17476
C         42.78691        31.54325        -0.12591
C         41.45694        30.86962        -0.41050
C         42.80058        32.98256         0.36588
C         41.54211        33.74272        -0.12321
C         42.80473        35.93885        -0.07876
C         41.58403        35.20668         0.41504
C         42.76451        37.25063        -0.44917
C         41.47277        37.91478        -0.90757
C         42.70006        40.13667        -0.77689
C         41.45288        39.45061        -0.95914
C         42.84670        41.58630        -1.16301
C         41.55757        42.34265        -1.32110
C         43.02927        44.38763        -1.57054
C         41.65733        43.71412        -1.57925
C         42.98638        45.93170        -1.50928
C         41.76030        46.64439        -1.99163
C         42.68542        48.63420        -1.08076
C         41.58468        48.05689        -1.78803
C         43.68134        25.31228        -1.62435
C         45.18810        27.35921        -1.04804
C         44.00578        26.50762        -0.85262
C         45.23215        28.66688        -0.59425
C         43.99705        29.37116        -0.14272
C         45.25422        31.56898        -0.22040
C         43.97570        30.86818        -0.22338
C         45.33879        33.08494        -0.22875
C         44.02504        33.77752         0.00060
C         45.34675        35.83682        -0.10463
C         44.03374        35.14079        -0.06902
C         45.29758        37.32998        -0.29442
C         44.01847        38.00701        -0.80855
C         44.92823        40.17388         0.36256
C         43.87063        39.46586        -0.44137
C         44.97338        41.66565         0.19171
C         43.92334        42.35057        -0.42770
C         44.90174        44.49176         0.26142
C         43.94191        43.76134        -0.51594
C         44.91178        45.93830         0.21627
C         44.03588        46.69188        -0.67433
C         43.56936        48.05485        -0.42039
C         47.48630        27.59101        -1.83831
C         46.45869        26.93892        -1.57174
C         47.81130        28.85741        -1.17732
C         46.50467        29.43252        -0.55708
C         47.71792        31.59820        -0.20156
C         46.44457        30.90184        -0.38872
C         47.67885        32.83158         0.58144
C         46.38159        33.61917         0.78784
C         47.56723        35.95688         0.91937
C         46.50122        35.16223         0.59256
C         47.53472        37.44332         0.85404
C         46.35631        38.15997         0.32835
C         47.50503        40.39592         0.53079
C         46.28200        39.51138         0.38858
C         47.20782        41.69623         1.24540
C         46.02643        42.37614         0.87554
C         46.79905        44.48173         1.99491
C         45.85196        43.78741         1.07028
C         46.69716        45.94007         1.88619
C         45.90640        46.45171         1.06262
C         50.26285        29.40035        -1.79506
C         48.84176        29.87429        -1.62670
C         50.21171        31.45923         0.03705
C         48.91974        30.99120        -0.53803
C         50.17758        32.72128         0.88772
C         48.83051        33.23953         1.16904
C         50.04613        36.03200         1.26191
C         48.82633        35.46748         1.47751
C         50.11958        37.49472         0.86629
C         48.79645        38.21192         1.09481
C         49.84366        40.42266         1.44699
C         48.76780        39.70003         1.00249
C         49.69499        41.85290         1.72430
C         48.27346        42.24614         2.16321
C         49.33032        44.39954         2.69566
C         48.03761        43.76178         2.48137
C         51.30347        30.05004        -1.54235
C         52.55148        31.91121        -0.13429
C         51.54066        31.07091        -0.60093
C         52.58067        32.84483         0.73233
C         51.36260        33.70965         0.83222
C         52.44871        36.09621         1.37218
C         51.30923        35.19375         1.08452
C         52.43401        37.32815         1.47481
C         51.28212        38.24048         1.60719
C         52.22585        40.72289         1.83640
C         51.15376        39.71392         1.79743
C         52.04560        41.94992         1.86386
C         50.80779        42.67286         1.95706
C         50.45990        44.01504         2.33994
O         38.14216        41.69043        -2.54878
O         32.96074        37.97135        -0.27789
O         43.45914        28.94584         1.16493
O         43.58824        26.39307         0.52581
O         37.99007        32.16840         2.06744
O         39.37966        26.64957         0.95116
O         30.97285        39.16559         0.98721
O         41.25192        31.01509        -1.91733
O         45.81533        36.44758        -1.36431
O         48.78620        34.24105         2.14078
O         38.22854        37.39841        -1.83157
O         47.58667        28.81053         0.22997
O         35.75047        35.30008        -0.93182
O         47.97022        37.85222         2.23639
O         36.91114        43.70548        -2.55916
O         44.22780        46.45601        -2.10215
O         43.42010        41.49568        -2.58733
O         41.58505        33.73251        -1.50914
O         51.27316        34.64345        -0.28380
O         51.01490        38.77551         2.90268
O         39.88231        46.27538        -3.54545
O         50.36479        31.41823         1.50774
O         46.92587        43.94661         3.35892
O         34.89503        29.18037         2.27593
O         44.07769        38.03660        -2.28036
H         44.71806        37.32345        -2.53484
O         37.08650        37.84808         1.61553
H         36.40112        38.28589         2.19113
O         38.81499        29.69565        -1.87665
H         39.62977        30.18747        -2.16887
O         42.77794        32.86017         1.80426
H         43.68968        32.98700         2.15185
O         34.79243        29.34093        -1.25482
H         34.58983        28.43614        -1.56840
O         43.60803        44.07591        -2.86047
H         44.35554        44.69911        -3.00510
O         34.44474        41.81570         2.96258
H         33.84754        41.72321         3.73763
O         47.77928        40.77147        -0.87299
H         48.57707        41.34233        -0.88473
O         48.36728        30.43613        -2.84500
H         49.04576        31.04019        -3.21124
O         41.29106        37.50658        -2.28195
H         42.15520        37.62756        -2.73999
O         44.44020        39.94598         1.75145
H         43.65990        40.52287         1.89806
O         36.61162        44.58788         0.53856
H         36.22250        45.17085         1.22540
O         34.03016        41.10393        -1.25843
H         33.68929        41.92973        -1.66321
O         34.97099        39.26900         2.51651
H         35.09150        40.17134         2.92126
O         42.33425        30.29536        -2.56838
H         42.69204        30.98580        -3.17927
O         42.70168        40.47572        -3.30540
H         43.27722        39.67149        -3.19416
O         40.36952        38.01193         1.21063
H         39.52956        37.81658         1.68571
O         41.70901        35.16987         1.86063
H         41.50836        36.07002         2.19651
O         48.11678        41.57105         3.44023
H         47.32414        41.94954         3.88185
O         45.85069        33.37761         2.10364
H         46.55295        33.57431         2.76119
O         37.22025        27.47641        -1.93561
H         37.72544        28.25035        -2.28887
O         50.38706        37.61955        -0.54310
H         51.07587        36.96446        -0.79072
O         45.84553        33.47671        -1.53018
H         45.10190        33.47342        -2.16830
O         36.44772        34.46880         2.16989
H         36.74410        33.80523         2.83359
