         210
 CSIRO Nanostructure Databank - Neutral Graphene Oxide Data Set
C         30.44757        31.62265         1.28929
C         30.57249        32.88004         1.37785
C         30.47016        35.99298         1.13044
C         30.44840        37.24443         1.05617
C         30.36909        40.37216         0.73993
C         30.39492        41.58893         0.48201
C         32.85756        28.91021         0.42938
C         31.76413        29.48729         0.66746
C         32.88824        31.54296         1.10253
C         31.61571        30.84443         1.01446
C         32.93190        33.00997         1.60190
C         31.62806        33.77834         1.36653
C         32.82840        35.93691         0.97698
C         31.61947        35.16721         1.16569
C         32.80528        37.36584         0.88127
C         31.57317        38.08938         0.99746
C         32.83030        40.31146         0.66781
C         31.52901        39.54404         1.06130
C         32.72492        41.66464         0.06521
C         31.50513        42.36723         0.01969
C         32.69982        44.35768        -0.63499
C         31.65223        43.70992        -0.45540
C         35.56429        27.42031         0.00490
C         35.38341        28.79983         0.24827
C         34.14967        29.47278         0.48855
C         35.40832        31.55757         0.97302
C         34.10090        30.86250         0.85224
C         35.39552        33.09848         1.06191
C         34.11005        33.81094         1.07315
C         35.29831        35.94062         0.62973
C         34.07688        35.19646         0.88615
C         35.27661        37.35992         0.51669
C         34.04155        38.10240         0.63595
C         35.26399        40.20849         0.16189
C         34.04695        39.49824         0.43822
C         35.26272        41.60355        -0.12150
C         33.98035        42.25360        -0.44688
C         35.29322        44.47175        -0.62760
C         34.02732        43.78732        -0.83948
C         35.48962        45.87729        -0.53343
C         37.93158        27.39117        -0.28099
C         36.64434        26.81360        -0.19431
C         37.87969        28.82100        -0.08964
C         36.63814        29.50039         0.20424
C         37.83393        31.64621         0.37735
C         36.64211        30.90197         0.48874
C         37.80393        33.08938         0.46073
C         36.60078        33.81176         0.64490
C         37.75210        35.95469         0.29724
C         36.54381        35.23439         0.50530
C         37.74223        37.38298         0.22271
C         36.50020        38.08183         0.31284
C         37.72753        40.22671         0.02753
C         36.50365        39.50262         0.17559
C         37.72094        41.64222        -0.11840
C         36.47780        42.32951        -0.22979
C         37.75170        44.48748        -0.20232
C         36.49437        43.77397        -0.36702
C         37.76446        45.97875         0.15217
C         36.50341        46.59424        -0.45689
C         40.41742        24.71938        -1.03923
C         39.36983        25.34894        -0.74779
C         40.38886        27.45842        -0.67879
C         39.15842        26.72824        -0.54006
C         40.33593        28.88737        -0.49702
C         39.09255        29.55633        -0.19229
C         40.25455        31.72936        -0.10920
C         39.06936        30.98302         0.01471
C         40.25521        33.12788         0.13087
C         39.01892        33.81872         0.29819
C         40.22348        35.94086         0.22756
C         38.99779        35.24069         0.25277
C         40.27098        37.40552        -0.11087
C         38.95437        38.11514         0.08711
C         40.22434        40.24245        -0.09935
C         38.96868        39.51282         0.02886
C         40.17172        41.65502        -0.30570
C         38.96373        42.36231        -0.26108
C         40.24870        44.53339        -0.40655
C         38.96758        43.81442        -0.27943
C         40.24920        46.00400        -0.44223
C         39.02565        46.67229        -0.24955
C         40.22167        48.76617        -0.39016
C         39.18443        48.07037        -0.24749
C         42.93317        24.88856        -1.66285
C         41.66016        25.35574        -1.25653
C         42.79455        27.60367        -1.29626
C         41.61948        26.80411        -1.05599
C         42.73754        29.01348        -1.02348
C         41.52544        29.63354        -0.64479
C         42.78879        31.81286        -0.35557
C         41.48412        31.13578        -0.73960
C         42.75823        33.14826         0.12498
C         41.48262        33.84248         0.23314
C         42.65037        35.98794         0.73602
C         41.43223        35.24501         0.36962
C         42.71063        37.44157         0.55107
C         41.39007        38.16232         0.60323
C         42.71913        40.23668         0.02808
C         41.45431        39.58302         0.09466
C         42.73793        41.63629        -0.46819
C         41.42044        42.36961        -0.61811
C         42.70974        44.52292        -1.05312
C         41.42589        43.84455        -0.59546
C         42.72426        46.00639        -0.72330
C         41.49378        46.72957        -0.59172
C         42.80133        48.76072        -0.54242
C         41.50708        48.19249        -0.51376
C         43.92034        25.62583        -1.89707
C         45.09242        27.87986        -2.20281
C         44.02671        27.03422        -1.80673
C         44.91416        29.27765        -2.01103
C         43.89466        29.83930        -1.24689
C         45.26350        31.85801        -0.37087
C         44.01083        31.20014        -0.70125
C         45.21994        33.14339         0.24014
C         43.97098        33.81197         0.39430
C         45.18250        36.00270         0.73306
C         43.94100        35.22377         0.81927
C         45.18106        37.38512         0.66302
C         43.91476        38.12136         0.54277
C         45.20876        40.27312         0.31813
C         43.91284        39.55730         0.32604
C         45.23952        41.72827        -0.02865
C         43.97426        42.44380        -0.36819
C         45.27081        44.50590        -0.63280
C         43.98769        43.78446        -0.63457
C         45.22303        45.93302        -0.68134
C         43.98012        46.65279        -0.69699
C         43.83747        48.05451        -0.60303
C         47.54545        28.19603        -2.25351
C         46.47306        27.60397        -2.47283
C         47.88006        29.37663        -1.50168
C         46.80875        30.27950        -1.48799
C         47.71263        31.68714         0.29628
C         46.59198        31.27912        -0.50991
C         47.63089        33.02580         0.86023
C         46.43974        33.75521         0.72068
C         47.68160        35.99828         1.12167
C         46.39377        35.21658         1.03984
C         47.67930        37.40606         0.68688
C         46.44669        38.11095         0.58614
C         47.71171        40.14812         0.10114
C         46.47494        39.48973         0.28342
C         47.76426        41.54432        -0.38429
C         46.46715        42.29242        -0.71794
C         47.76377        44.47610        -0.42932
C         46.50743        43.80612        -0.54185
C         47.60476        45.88379        -0.47222
C         46.51238        46.49156        -0.59289
C         50.18425        28.98219        -0.51428
C         48.94242        29.65017        -0.60558
C         50.01513        30.95386         1.15144
C         48.87211        30.77875         0.30441
C         50.05897        33.09429         1.67935
C         48.74786        33.79108         1.62634
C         50.12018        35.76863         0.78622
C         48.93100        35.21050         1.11416
C         50.18496        37.23874         0.33831
C         48.90583        38.04317         0.47765
C         50.19247        40.18178         0.47413
C         48.94385        39.45162         0.27965
C         50.24135        41.58280         0.39566
C         49.07928        42.29183        -0.21657
C         50.20723        44.28373         0.23856
C         48.99541        43.79290        -0.18732
C         51.27075        29.30951         0.03072
C         52.33011        31.33115         1.34597
C         51.31386        30.40582         0.93089
C         52.31035        32.57260         1.42996
C         51.29731        33.59291         1.37783
C         52.44524        35.85803         1.55719
C         51.44422        34.97160         0.79164
C         52.28883        37.09126         1.45616
C         51.32744        38.02851         1.02607
C         52.36518        40.28772         1.42500
C         51.33780        39.40130         0.98256
C         52.44803        41.53011         1.35410
C         51.40668        42.36414         0.84668
C         51.27987        43.74223         0.67479
O         46.90544        35.70712         2.32557
O         43.17402        35.51563         2.04141
O         45.33682        41.35561         1.36958
O         35.60155        32.23875         2.26376
O         42.11104        41.78960        -1.80157
O         49.91937        31.81940         2.26366
O         48.70364        41.70367        -1.50841
O         32.35798        40.17590         2.05644
O         33.98630        42.74729        -1.83214
O         45.86694        30.17121        -2.52783
O         50.49400        37.23517        -1.07376
H         51.19898        36.56128        -1.22310
O         41.32021        31.42323        -2.18658
H         42.09826        31.04144        -2.64797
O         46.21588        42.05318        -2.12605
H         47.08100        42.13089        -2.59041
O         37.65091        46.06311         1.57537
H         37.74934        47.00243         1.83847
O         51.90539        34.87221        -0.55645
H         52.74552        34.36568        -0.55821
O         40.58311        37.46528        -1.53629
H         39.84706        37.04752        -2.03042
O         33.09676        32.93079         3.04544
H         34.01188        32.58983         3.20732
O         48.33139        33.84991         3.01360
H         48.49690        32.96219         3.39972
O         42.67792        44.44387        -2.51170
H         42.58496        43.48592        -2.73581
O         41.01792        38.21628         2.01348
H         41.81211        38.45419         2.53658
