         324
 CSIRO Nanostructure Databank - Neutral Graphene Oxide Data Set
C          1.13749         3.40207         0.06990
C         -0.03528         4.11078         0.05593
C          1.11625         6.24781        -0.20061
C         -0.05297         5.53287        -0.10605
C          1.18106         7.72454        -0.59460
C         -0.09017         8.50117        -0.40697
C          1.13303        10.58596         0.11798
C         -0.08045         9.82707        -0.15661
C          1.12221        11.97089         0.18017
C         -0.04399        12.74419        -0.14429
C          1.19788        14.86489         0.04211
C         -0.02127        14.10799        -0.14646
C          1.18557        16.29913        -0.10030
C         -0.03097        17.03099        -0.19311
C          1.15579        19.16237        -0.30445
C         -0.05204        18.40445        -0.28096
C          1.14548        20.59493        -0.46406
C         -0.04194        21.33984        -0.75932
C          1.17858        23.52655        -1.04676
C         -0.06528        22.69553        -0.90948
C          1.10636        24.94589        -0.49146
C         -0.09009        25.63200        -0.28323
C          1.09738        27.71376         0.18173
C         -0.09691        26.98895         0.07804
C          1.12155        29.11442         0.53751
C          3.61360         3.39344         0.08063
C          2.40059         4.07710        -0.03119
C          3.56400         6.22952        -0.14143
C          2.37212         5.52793        -0.13676
C          3.55644         7.65602         0.22802
C          2.35355         8.45020         0.04159
C          3.60297        10.52362         0.57588
C          2.36738         9.82017         0.30190
C          3.57530        11.98383         0.90021
C          2.25110        12.74874         0.82902
C          3.64387        14.88728         0.33303
C          2.38997        14.18324         0.32488
C          3.66358        16.29148         0.04537
C          2.41522        17.01842        -0.10802
C          3.64460        19.15949        -0.39784
C          2.37763        18.43382        -0.22751
C          3.69448        20.61785        -0.10173
C          2.35688        21.37023        -0.20506
C          3.59223        23.50193        -0.46126
C          2.41456        22.81079        -0.52873
C          3.59036        24.96095        -0.47964
C          2.33738        25.65012        -0.34671
C          3.56442        27.77479        -0.02499
C          2.33593        27.04629        -0.05879
C          3.56837        29.18677         0.32984
C          2.29174        29.80436         0.62954
C          6.10090         3.43120         0.14502
C          4.87365         4.06232        -0.01214
C          6.14066         6.28717        -0.23231
C          4.83993         5.51533        -0.28818
C          6.13257         7.74476        -0.00792
C          4.88507         8.41516         0.34951
C          6.08970        10.56787         0.31797
C          4.83237         9.87859         0.40816
C          6.15601        11.98078         0.74707
C          4.87043        12.75108         0.90403
C          6.11034        14.89344         0.48931
C          4.88293        14.21010         0.57831
C          6.12645        16.28352         0.19613
C          4.91534        16.96300        -0.02377
C          6.15257        19.21325        -0.01676
C          4.94141        18.40646        -0.35459
C          6.16240        20.66393        -0.34006
C          4.94167        21.34269        -0.31458
C          6.07953        23.50155        -0.80142
C          4.90892        22.83364        -0.10322
C          6.06198        25.00147        -0.81365
C          4.78912        25.68800        -0.45679
C          6.02886        27.86816        -0.34096
C          4.77144        27.09784        -0.27414
C          6.03773        29.34014         0.04179
C          4.74472        29.90382         0.44226
C          8.57262         3.47679         0.43758
C          7.35366         4.14753         0.20276
C          8.57657         6.30863         0.21958
C          7.37623         5.56679         0.08092
C          8.58588         7.74910        -0.03277
C          7.31242         8.45905        -0.09379
C          8.49914        10.65969        -0.29953
C          7.27365         9.90022         0.03110
C          8.64065        12.07109         0.06416
C          7.46451        12.70688         0.72372
C          8.72299        14.90499         0.73968
C          7.40392        14.20392         0.80807
C          8.72452        16.30663         0.23865
C          7.42559        17.00614         0.03753
C          8.70863        19.23537        -0.05296
C          7.44406        18.49743         0.17794
C          8.65884        20.65410        -0.29287
C          7.41391        21.33894        -0.42807
C          8.66562        23.53319        -0.71151
C          7.40046        22.76975        -0.80380
C          8.65289        24.98176        -0.61703
C          7.36860        25.73049        -0.73278
C          8.55179        27.86326         0.13921
C          7.30368        27.11077        -0.15127
C          8.53682        29.34097         0.33484
C          7.31861        29.98827         0.41596
C         11.02754         3.52994         0.79891
C          9.79229         4.18972         0.56085
C         11.02635         6.36041         0.66651
C          9.77653         5.61865         0.47224
C         11.03961         7.85159         0.35555
C          9.77668         8.44939        -0.09734
C         11.08412        10.60646        -0.42475
C          9.81062         9.86765        -0.47339
C         11.04704        12.00885        -0.47276
C          9.84530        12.73503        -0.11936
C         11.13243        14.97028        -0.03714
C         10.03852        14.07838         0.62687
C         11.13347        16.29952         0.01536
C          9.97163        17.15627         0.58876
C         11.15180        19.26041        -0.18736
C          9.91699        18.55188        -0.02444
C         11.14141        20.68272        -0.27468
C          9.88515        21.38153        -0.37405
C         11.12694        23.53760        -0.50634
C          9.84839        22.81256        -0.53227
C         11.11067        25.03915        -0.39355
C          9.80328        25.70353        -0.35837
C         11.10298        27.93674        -0.02741
C          9.82234        27.18608        -0.24739
C         11.03598        29.34245         0.45679
C          9.79376        29.99355         0.55472
C         13.49475         3.54343         0.99654
C         12.27092         4.22295         0.80274
C         13.51979         6.34421         0.43658
C         12.30123         5.64309         0.62492
C         13.54024         7.77483         0.11944
C         12.32235         8.50239         0.00424
C         13.59596        10.53043        -0.61936
C         12.30932         9.86257        -0.36156
C         13.61363        12.04581        -0.77350
C         12.29568        12.76506        -0.72611
C         13.64073        14.88007        -0.21251
C         12.33817        14.25210        -0.54166
C         13.57422        16.29298         0.17742
C         12.40855        17.08003        -0.46122
C         13.59515        19.24852         0.01804
C         12.38598        18.55489        -0.11055
C         13.59777        20.67111        -0.01325
C         12.39306        21.36414        -0.20130
C         13.62983        23.57960        -0.41394
C         12.35223        22.84782         0.05491
C         13.59510        25.02096         0.00798
C         12.28958        25.69643         0.30828
C         13.54096        27.85648         0.42385
C         12.36447        27.19424         0.15042
C         13.51259        29.30627         0.62950
C         12.26260        29.98391         0.71544
C         15.95827         3.56113         1.10990
C         14.72214         4.23081         0.87741
C         15.99450         6.22422        -0.01071
C         14.72526         5.61195         0.50757
C         16.05788         7.73003         0.15388
C         14.78783         8.46433        -0.02151
C         16.09324        10.55947        -0.41893
C         14.84919         9.83753        -0.28793
C         16.06612        12.02142        -0.40138
C         14.86651        12.74887        -0.43388
C         16.08682        14.89131         0.09156
C         14.83737        14.17380        -0.16443
C         16.10229        16.26544         0.36834
C         14.85343        17.03562         0.50424
C         16.15196        19.30685         0.47511
C         14.84424        18.54884         0.44804
C         16.19342        20.73486         0.05250
C         14.87677        21.41812         0.21110
C         16.13162        23.63513        -0.10683
C         14.86995        22.89417         0.11633
C         16.10877        24.97258         0.17570
C         14.81905        25.63828         0.62414
C         16.00175        27.85683         0.49316
C         14.80971        27.15367         0.47515
C         15.98193        29.29992         0.75510
C         14.71947        29.96746         0.85662
C         18.43353         3.51688         1.18176
C         17.20071         4.21336         0.94193
C         18.47768         6.14465         0.09421
C         17.24896         5.54450         0.45665
C         18.50854         7.46351        -0.49159
C         17.36678         8.40467        -0.22461
C         18.51276        10.63758        -0.81821
C         17.31881         9.86412        -0.55152
C         18.53559        12.04159        -0.50888
C         17.31104        12.74704        -0.26662
C         18.57882        14.85161        -0.00123
C         17.32309        14.14691        -0.04388
C         18.61509        16.26332         0.15654
C         17.38329        16.98935         0.49182
C         18.63358        19.18937        -0.04025
C         17.43456        18.52604         0.51574
C         18.56186        20.53670        -0.52090
C         17.34847        21.37575        -0.33198
C         18.56603        23.74730        -0.57877
C         17.29624        22.90330        -0.74773
C         18.57000        25.09170        -0.10640
C         17.31661        25.77204         0.16768
C         18.51193        27.92639         0.30611
C         17.26152        27.15078         0.34616
C         18.46715        29.40726         0.73691
C         17.15239        29.98916         1.02485
C         19.62418         4.06500         0.78455
C         20.84483         5.79866        -0.48875
C         19.66932         5.35082         0.15905
C         20.80305         6.95169        -1.24947
C         19.64502         7.76679        -1.23365
C         20.88967        10.82020        -1.47620
C         19.69053        10.10306        -1.39538
C         20.94938        12.11089        -0.97549
C         19.77461        12.74891        -0.52291
C         21.02141        14.86091        -0.06341
C         19.80175        14.15184        -0.18503
C         21.03617        16.23577         0.04767
C         19.82661        16.97452         0.07859
C         20.96652        18.99104        -0.75248
C         19.81940        18.41935        -0.16106
C         20.88989        20.24868        -1.32088
C         19.69869        20.98011        -1.23137
C         20.97137        23.98564        -1.08625
C         19.75062        23.30302        -1.17161
C         21.00019        25.21534        -0.44169
C         19.79906        25.81055        -0.00641
C         20.92274        27.90299         0.79326
C         19.79375        27.20963         0.41321
C         20.85552        29.24580         1.28648
C         19.68753        29.95024         1.33106
O          6.54828        22.93785        -2.03578
O          8.04422        14.75099         2.00784
O         14.78922        22.27849         1.44315
O         10.51874        13.70870         1.84448
O         16.92301         8.22335         1.19550
O         10.50266        27.80763        -1.38819
O         15.35795        19.13770         1.68977
O         13.69622        11.18139        -1.94488
O          7.83305        27.14971         1.21565
O         17.58577        17.77228         1.73861
O          6.68423        25.58971        -2.00775
O         19.68644         8.88489        -2.07077
O          4.23891        12.34701         2.16666
O         19.69056        22.15900        -1.98469
O          4.35682        18.78717        -1.63648
O         10.97933         7.37645         1.74202
O         10.10899        17.27789         1.92608
O          2.98175        21.02858         1.10714
O          6.65692        18.94463         1.33556
O         12.19215        13.69331        -1.87541
O          4.22820         7.80952         1.52817
O         11.37978        24.38442        -1.67670
O         18.55851        29.00614        -0.68002
O         12.50801        16.98263        -1.81012
O          7.01387        12.06161         1.95085
O          8.22945        16.50545        -1.10607
O          6.06444        28.87769        -1.38377
O         13.92832        16.55626         1.54882
O          5.54540         5.90281        -1.53652
O          8.99830        10.26383        -1.62023
O         17.00477        22.87271        -2.17109
H         17.82094        22.56364        -2.62657
O          5.11340        23.05409         1.32486
H          4.43244        22.51831         1.79410
O         12.01392        25.56107         1.76224
H         11.96205        24.58017         1.95087
O          1.45072         7.69517        -2.04106
H          1.39259         8.61614        -2.37239
O         15.94041         6.02677        -1.47467
H         15.88901         5.06159        -1.64243
O         12.24797        22.95604         1.50712
H         13.09659        22.58310         1.87654
O         14.70923        25.40632         2.07263
H         13.78692        25.66008         2.33258
O          1.37286        23.68221        -2.49438
H          2.19038        24.20763        -2.63121
O         13.77702        23.44757        -1.84997
H         13.02343        23.92257        -2.27695
O          1.77665        12.90454         2.20319
H          2.58415        12.96249         2.76924
H          1.12544         2.30634         0.16097
H         -0.99549         3.58185         0.13597
H         -1.02941         6.03150        -0.17897
H         -1.05049         7.99918        -0.59380
H         -1.04382        10.35349        -0.10321
H         -0.97510        12.23532        -0.42886
H         -0.94563        14.64009        -0.40527
H         -0.99179        16.50144        -0.16397
H         -1.02219        18.91698        -0.32106
H         -0.99726        20.79796        -0.81615
H         -1.03144        23.18621        -1.09505
H         -1.05167        25.11147        -0.39369
H         -1.05569        27.49516         0.26065
H          0.16541        29.61661         0.74591
H          3.60284         2.30858         0.26564
H          2.28544        30.86784         0.91041
H          6.12681         2.34051         0.29040
H          4.71807        30.92864         0.84350
H          8.58043         2.38069         0.53005
H          7.29145        31.05870         0.67326
H         11.03246         2.43826         0.93267
H          9.78208        31.06506         0.80789
H         13.49326         2.46680         1.21784
H         12.26103        31.04701         1.00140
H         15.94136         2.51020         1.43264
H         14.71357        31.04607         1.07535
H         18.39895         2.50990         1.62113
H         17.10090        31.02849         1.38466
H         20.56075         3.49869         0.89132
H         21.75632         5.18607        -0.44839
H         21.67102         7.27599        -1.83779
H         21.76782        10.35030        -1.93650
H         21.89987        12.65662        -1.02010
H         21.97856        14.32405        -0.08292
H         22.00374        16.74997         0.11504
H         21.89463        18.41518        -0.85068
H         21.73938        20.67568        -1.86858
H         21.87215        23.56214        -1.54799
H         21.94633        25.76801        -0.37251
H         21.89550        27.39328         0.83530
H         21.76982        29.68475         1.71071
H         19.63411        30.91483         1.85671
