         232
 CSIRO Nanostructure Databank - Neutral Graphene Oxide Data Set
C        -11.27700         0.75470        -0.37637
C        -10.08724         1.52298        -0.02912
C         -8.90425         0.72282         0.47748
C         -7.61078         1.50224         0.37513
C         -6.31477         0.77683         0.06555
C         -5.09604         1.35142         0.76147
C         -3.81596         0.67697         0.48987
C         -2.62201         1.37913         0.62428
C         -1.37069         0.73365         0.29127
C         -0.21702         1.45893         0.11238
C          0.93916         0.84317        -0.65265
C          2.25096         1.64665        -0.52016
C          3.52239         0.83462        -0.37410
C          4.83009         1.49532        -0.02717
C          6.05422         0.69600         0.16205
C          7.34495         1.26298         0.46397
C          8.49694         0.40135         0.74457
C         10.38632         1.49995         0.25265
C         11.41469         0.56364        -0.16396
C        -10.06346         2.88041         0.00352
C         -8.89605         3.67127         0.55864
C         -7.61963         2.84382         0.55994
C         -6.37135         3.59054         0.85758
C         -5.09764         2.83152         1.05858
C         -3.82321         3.54339         0.99579
C         -2.61641         2.80796         0.88716
C         -1.37776         3.49113         0.92294
C         -0.18630         2.84730         0.51141
C          1.05002         3.50807         0.72940
C          2.31033         3.02696         0.11080
C          3.70361         3.74419         0.20435
C          4.96027         2.96467        -0.11584
C          6.37655         3.53089        -0.19047
C          7.54450         2.68086         0.30381
C          8.78777         3.38904         0.02906
C         10.05236         2.71144        -0.26805
C         -8.66584         5.00290        -0.16340
C         -7.47412         5.68183        -0.12463
C         -6.29786         5.04735         0.52558
C         -4.96800         5.68349         0.41083
C         -3.80210         4.96806         0.76405
C         -2.56643         5.66873         0.84003
C         -1.40823         4.92023         1.41791
C         -0.07978         5.62521         1.34555
C          0.98785         4.75626         1.40989
C          2.95491         5.86478         1.36500
C          3.98226         5.09652         0.74531
C          5.25200         5.70006         0.56955
C          6.40537         4.97912         0.24698
C          7.65063         5.64040        -0.03654
C          8.78620         4.77304        -0.22658
C         -7.27643         7.02637        -0.61766
C         -6.06244         7.69458        -0.51129
C         -4.87161         7.02682         0.00009
C         -3.62572         7.71026         0.08277
C         -2.47378         7.03303         0.57417
C         -1.22289         7.79911         0.88998
C          0.03905         7.11383         1.41233
C          1.43590         7.96081         1.45189
C          2.75702         7.21046         1.19573
C          4.00980         7.94407         0.89954
C          5.30464         7.16743         0.78232
C          6.53032         7.86476         0.17555
C          7.66181         7.01967        -0.24781
C         -5.91192         9.06711        -0.93332
C         -4.71956         9.72961        -0.83488
C         -3.53126         9.09656        -0.31674
C         -2.30703         9.75599        -0.25281
C         -1.11728         9.14043         0.25668
C          0.11945         9.72659         0.07440
C          1.38462         9.14568         0.45370
C          2.51896         9.74396        -0.04756
C          3.89719         9.31620         0.26256
C          5.07459         9.79318        -0.49775
C          6.27771         9.17306        -0.47425
C        -11.28364        -0.60543        -0.40515
C        -10.05380        -1.38759        -0.27887
C         -8.86636        -0.68722        -0.06964
C         -7.57126        -1.39131        -0.33332
C         -6.38687        -0.72391         0.37752
C         -5.08969        -1.39405        -0.00768
C         -3.83989        -0.73632         0.11757
C         -2.61772        -1.42477        -0.01868
C         -1.31830        -0.76590         0.34767
C         -0.08796        -1.38892        -0.28438
C          1.03869        -0.66883        -0.51611
C          2.26100        -1.36333        -1.00028
C          3.57125        -0.57556        -0.89365
C          4.77608        -1.33721        -0.53611
C          5.73245        -0.68668         0.24732
C          7.61089        -1.81998         0.28336
C          8.73276        -0.94172         0.38212
C          9.99926        -1.54050        -0.03016
C         11.24082        -0.78918        -0.18805
C        -10.06326        -2.81207        -0.39240
C         -8.90008        -3.59552        -0.13786
C         -7.61390        -2.88558        -0.07320
C         -6.43439        -3.55947        -0.11922
C         -5.16406        -2.81836        -0.32976
C         -3.88618        -3.57735        -0.39940
C         -2.58943        -2.92070         0.02196
C         -1.41758        -3.54642        -0.73573
C         -0.12418        -2.80792        -0.72664
C          1.14946        -3.55635        -0.85716
C          2.31601        -2.85880        -0.96224
C          3.61639        -3.54805        -1.23339
C          4.91758        -2.74416        -0.98997
C          6.23562        -3.52341        -0.94072
C          7.52372        -2.96241        -0.46367
C          8.78185        -3.65562        -0.67258
C          9.98587        -2.86372        -0.47398
C         -8.90366        -4.98565        -0.00905
C         -7.66779        -5.71076         0.46567
C         -6.41297        -5.07190        -0.26952
C         -5.15084        -5.73916         0.25937
C         -3.87952        -5.00907         0.01524
C         -2.67571        -5.78533        -0.38392
C         -1.41572        -5.05532        -0.79285
C         -0.13831        -5.76978        -0.67136
C          1.06551        -5.02370        -1.25307
C          2.38776        -5.78425        -1.11028
C          3.68414        -5.03728        -1.10184
C          4.88076        -5.71135        -0.96566
C          6.19681        -5.02905        -1.09577
C          7.48564        -5.85597        -0.93908
C          8.75420        -5.02545        -0.82499
C         -7.50879        -7.16972         0.20401
C         -6.35508        -7.90783         0.85375
C         -5.07541        -7.20789         0.37088
C         -3.85196        -7.86633         0.34418
C         -2.61047        -7.18494         0.03900
C         -1.37222        -7.81814         0.07387
C         -0.13899        -7.11621        -0.29241
C          1.10543        -7.82162        -0.12766
C          2.36119        -7.22613        -0.64576
C          3.65765        -7.88257        -0.26852
C          4.94480        -7.13563        -0.51030
C          6.13956        -7.53557         0.29793
C          7.32447        -6.88079         0.15773
C         -6.25229        -9.39182         0.57987
C         -5.05738       -10.02274         0.55936
C         -3.78712        -9.30223         0.55748
C         -2.55722        -9.91490         0.68184
C         -1.31648        -9.19142         0.52627
C         -0.07560        -9.75703         0.80945
C          1.14142        -9.05979         0.53261
C          2.40803        -9.58878         1.00122
C          3.60772        -8.97947         0.72807
C          4.84692        -9.37029         1.35892
C          6.00662        -8.67442         1.18978
O          6.50663        -1.48992         1.06960
O         -1.00115        -2.89822        -1.94853
O         -4.40907        -5.12069         1.37416
O          9.58133         1.06120         1.32639
O         -6.03959         0.99068        -1.34057
H         -6.50196         0.28461        -1.85809
O         -2.39695        -3.34080         1.40880
H         -1.84446        -2.64770         1.85614
O         -1.11690        -1.03751         1.81525
H         -1.74700        -0.46122         2.30239
O          6.39292        -4.17169        -2.25452
O          3.88646         0.99271         1.04049
O          4.23480         3.63980        -1.17638
O         -7.46934        -5.39993         1.86022
H         -7.55294        -4.43005         1.98294
O         -6.57881         4.60233         1.91488
O         -9.11599         0.55721         1.92400
H        -10.01826         0.19352         2.04770
O         -2.34756        -5.58594        -1.80131
O         -4.49756        -3.22849        -1.65267
O         -0.91658         7.73746         2.34317
O         -6.47872        -5.35254        -1.67393
H         -5.86030        -4.73053        -2.12880
O          0.53376         0.97888        -2.04551
H          0.84858         1.85821        -2.35940
O          6.66846         3.57737        -1.63861
H          5.85537         3.91565        -2.08061
O          2.09807         5.11672         2.14208
O          2.35351        -6.89770        -2.07302
O         -6.37782        -7.78957         2.29238
H         -6.58098        -6.84967         2.51459
O          2.11806         2.80330        -1.36539
O          0.77423        -4.96837        -2.67295
H          1.04382        -5.83673        -3.05236
O         -7.32962        -1.28020        -1.78191
H         -8.09492        -1.68600        -2.24273
O          1.50695         8.50951         2.76853
H          0.58780         8.72924         3.04537
O          2.91493        -0.76345        -2.16272
O         -1.67550         4.84926         2.87129
H         -1.65374         5.77717         3.20014
O          6.33144         7.72048         1.63465
O          4.33376        -2.92299        -2.31958
O          4.49863        -8.17394        -1.43312
O         -6.60038        -0.89717         1.79794
H         -6.32308        -0.08188         2.27180
O         -5.24792         1.81096         2.13284
O          4.14742         9.15185         1.69918
O          7.60718        -6.61141        -2.17791
H          7.40748        -5.98402        -2.90759
O         -9.25405         4.01914         1.92342
H         -8.42575         4.35552         2.34580
H         12.09615        -1.39260        -0.53364
H         12.37133         0.97404        -0.52352
H         10.70368         3.18255        -1.01893
H          9.73895         5.23797        -0.52360
H          8.55144         7.50350        -0.68044
H          7.09824         9.58747        -1.08115
H          4.95459        10.70727        -1.10017
H          2.39671        10.59601        -0.73713
H          0.15835        10.68810        -0.46317
H         -2.22985        10.78423        -0.63852
H         -4.64942        10.77899        -1.15773
H         -6.79419         9.58756        -1.33475
H         -8.14053         7.55469        -1.04932
H         -9.54933         5.50475        -0.59026
H        -10.96759         3.44578        -0.27638
H        -12.20567         1.31010        -0.57888
H        -12.21777        -1.14428        -0.62279
H        -11.02880        -3.32346        -0.51883
H         -9.80695        -5.55737        -0.26847
H         -7.79661        -7.49825        -0.80881
H         -7.18192        -9.98005         0.55823
H         -5.01858       -11.12058         0.48241
H         -2.50508       -10.99449         0.89006
H         -0.01905       -10.76891         1.23689
H          2.38255       -10.45334         1.68194
H          4.82566       -10.23459         2.03927
H          6.91191        -8.99713         1.72559
H          8.20042        -7.19137         0.74768
H          9.70051        -5.58352        -0.88933
H         10.94435        -3.32509        -0.75929
